<?xml version="1.0" encoding="UTF-8"?>

<!-- generated on 2024-09-28 12:32:43 by Eclipse SUMO netedit Version 1.20.0
<configuration xmlns:xsi="http://www.w3.org/2001/XMLSchema-instance" xsi:noNamespaceSchemaLocation="http://sumo.dlr.de/xsd/neteditConfiguration.xsd">

    <input>
        <sumo-net-file value="C:\Users\Zumrud Isgandarli\Sumo\atlms\ATLMS\ATLMS.net.xml"/>
    </input>

    <output>
        <output-file value="C:\Users\Zumrud Isgandarli\Sumo\atlms\ATLMS\ATLMS.net.xml"/>
        <output.street-names value="true"/>
    </output>

    <processing>
        <geometry.min-radius.fix.railways value="false"/>
        <geometry.max-grade.fix value="false"/>
        <offset.disable-normalization value="true"/>
        <lefthand value="0"/>
    </processing>

    <junctions>
        <no-turnarounds value="true"/>
        <junctions.corner-detail value="5"/>
        <junctions.limit-turn-speed value="5.50"/>
        <rectangular-lane-cut value="0"/>
    </junctions>

    <pedestrian>
        <walkingareas value="0"/>
    </pedestrian>

</configuration>
-->

<net version="1.20" junctionCornerDetail="5" limitTurnSpeed="5.50" xmlns:xsi="http://www.w3.org/2001/XMLSchema-instance" xsi:noNamespaceSchemaLocation="http://sumo.dlr.de/xsd/net_file.xsd">

    <location netOffset="-400334.99,-4470216.50" convBoundary="-69.95,677.73,1633.87,1655.57" origBoundary="49.825880,40.376771,49.850430,40.392606" projParameter="+proj=utm +zone=39 +ellps=WGS84 +datum=WGS84 +units=m +no_defs"/>

    <type id="highway.primary" priority="12" numLanes="2" speed="27.78" disallow="tram rail_urban rail rail_electric rail_fast ship container cable_car subway aircraft wheelchair scooter drone" oneway="0"/>
    <type id="highway.primary_link" priority="7" numLanes="1" speed="22.22" disallow="tram rail_urban rail rail_electric rail_fast ship container cable_car subway aircraft wheelchair scooter drone" oneway="0"/>

    <edge id=":-J1_0" function="internal">
        <lane id=":-J1_0_0" index="0" disallow="tram rail_urban rail rail_electric rail_fast ship container cable_car subway aircraft wheelchair scooter drone" speed="15.62" length="10.45" shape="55.31,1134.63 52.99,1132.80 51.02,1132.06 48.80,1131.71 45.73,1131.08"/>
    </edge>
    <edge id=":-J1_1" function="internal">
        <lane id=":-J1_1_0" index="0" disallow="tram rail_urban rail rail_electric rail_fast ship container cable_car subway aircraft wheelchair scooter drone" speed="20.84" length="10.75" shape="56.86,1130.97 46.56,1127.99"/>
        <lane id=":-J1_1_1" index="1" disallow="tram rail_urban rail rail_electric rail_fast ship container cable_car subway aircraft wheelchair scooter drone" speed="20.84" length="10.75" shape="57.75,1127.89 47.40,1124.90"/>
    </edge>
    <edge id=":-J2_0" function="internal">
        <lane id=":-J2_0_0" index="0" disallow="tram rail_urban rail rail_electric rail_fast ship container cable_car subway aircraft wheelchair scooter drone" speed="25.00" length="3.21" shape="389.52,1230.57 388.61,1230.28 387.98,1230.09 387.35,1229.95 386.41,1229.77"/>
    </edge>
    <edge id=":-J2_1" function="internal">
        <lane id=":-J2_1_0" index="0" disallow="tram rail_urban rail rail_electric rail_fast ship container cable_car subway aircraft wheelchair scooter drone" speed="27.78" length="5.70" shape="390.51,1227.53 385.13,1225.82"/>
        <lane id=":-J2_1_1" index="1" disallow="tram rail_urban rail rail_electric rail_fast ship container cable_car subway aircraft wheelchair scooter drone" speed="27.78" length="5.70" shape="391.51,1224.49 386.01,1222.75"/>
    </edge>
    <edge id=":-JA0_0" function="internal">
        <lane id=":-JA0_0_0" index="0" disallow="tram rail_urban rail rail_electric rail_fast ship container cable_car subway aircraft wheelchair scooter drone" speed="22.22" length="0.25" shape="281.47,1203.66 281.23,1203.58"/>
    </edge>
    <edge id=":-JA1_0" function="internal">
        <lane id=":-JA1_0_0" index="0" disallow="tram rail_urban rail rail_electric rail_fast ship container cable_car subway aircraft wheelchair scooter drone" speed="9.76" length="9.55" shape="140.92,1247.09 137.55,1247.53 134.94,1248.14 133.07,1248.90 131.95,1249.83"/>
    </edge>
    <edge id=":-JA1_1" function="internal">
        <lane id=":-JA1_1_0" index="0" disallow="tram rail_urban rail rail_electric rail_fast ship container cable_car subway aircraft wheelchair scooter drone" speed="27.78" length="10.57" shape="139.52,1243.33 137.04,1245.00 135.32,1246.15 133.81,1247.52 131.95,1249.83"/>
        <lane id=":-JA1_1_1" index="1" disallow="tram rail_urban rail rail_electric rail_fast ship container cable_car subway aircraft wheelchair scooter drone" speed="27.78" length="10.57" shape="137.68,1240.72 134.94,1242.56 133.07,1243.85 131.42,1245.38 129.38,1247.93"/>
    </edge>
    <edge id=":J1_0" function="internal">
        <lane id=":J1_0_0" index="0" speed="13.89" length="8.32" shape="40.68,1113.36 43.06,1114.03 44.70,1114.46 46.36,1114.77 48.80,1115.09"/>
    </edge>
    <edge id=":J1_1" function="internal">
        <lane id=":J1_1_0" index="0" disallow="tram rail_urban rail rail_electric rail_fast ship container cable_car subway aircraft wheelchair scooter drone" speed="20.84" length="8.45" shape="39.84,1116.45 48.09,1118.48"/>
        <lane id=":J1_1_1" index="1" disallow="tram rail_urban rail rail_electric rail_fast ship container cable_car subway aircraft wheelchair scooter drone" speed="20.84" length="8.45" shape="38.99,1119.54 47.15,1121.53"/>
    </edge>
    <edge id=":J2_0" function="internal">
        <lane id=":J2_0_0" index="0" disallow="tram rail_urban rail rail_electric rail_fast ship container cable_car subway aircraft wheelchair scooter drone" speed="20.84" length="3.20" shape="379.62,1210.17 380.49,1210.57 381.09,1210.82 381.70,1211.03 382.61,1211.32"/>
    </edge>
    <edge id=":J2_1" function="internal">
        <lane id=":J2_1_0" index="0" disallow="tram rail_urban rail rail_electric rail_fast ship container cable_car subway aircraft wheelchair scooter drone" speed="27.78" length="0.67" shape="380.97,1214.55 381.65,1214.38"/>
        <lane id=":J2_1_1" index="1" disallow="tram rail_urban rail rail_electric rail_fast ship container cable_car subway aircraft wheelchair scooter drone" speed="27.78" length="0.67" shape="380.09,1217.62 380.70,1217.43"/>
    </edge>
    <edge id=":J3_0" function="internal">
        <lane id=":J3_0_0" index="0" disallow="tram rail_urban rail rail_electric rail_fast ship container cable_car subway aircraft wheelchair scooter drone" speed="27.78" length="54.05" shape="1171.43,1425.57 1224.27,1438.22"/>
        <lane id=":J3_0_1" index="1" disallow="tram rail_urban rail rail_electric rail_fast ship container cable_car subway aircraft wheelchair scooter drone" speed="27.78" length="54.05" shape="1170.68,1428.68 1223.35,1441.28"/>
        <lane id=":J3_0_2" index="2" disallow="tram rail_urban rail rail_electric rail_fast ship container cable_car subway aircraft wheelchair scooter drone" speed="27.78" length="54.05" shape="1169.94,1431.80 1222.42,1444.34"/>
        <lane id=":J3_0_3" index="3" disallow="tram rail_urban rail rail_electric rail_fast ship container cable_car subway aircraft wheelchair scooter drone" speed="27.78" length="54.05" shape="1169.19,1434.91 1221.49,1447.40"/>
    </edge>
    <edge id=":J4_0" function="internal">
        <lane id=":J4_0_0" index="0" disallow="tram rail_urban rail rail_electric rail_fast ship container cable_car subway aircraft wheelchair scooter drone" speed="20.84" length="0.32" shape="1500.12,1521.68 1500.22,1521.69 1500.30,1521.67 1500.38,1521.66 1500.49,1521.67"/>
        <lane id=":J4_0_1" index="1" disallow="tram rail_urban rail rail_electric rail_fast ship container cable_car subway aircraft wheelchair scooter drone" speed="20.84" length="0.32" shape="1499.19,1524.74 1499.29,1524.75 1499.36,1524.73 1499.43,1524.71 1499.52,1524.72"/>
        <lane id=":J4_0_2" index="2" disallow="tram rail_urban rail rail_electric rail_fast ship container cable_car subway aircraft wheelchair scooter drone" speed="20.84" length="0.32" shape="1498.26,1527.80 1498.56,1527.77"/>
        <lane id=":J4_0_3" index="3" disallow="tram rail_urban rail rail_electric rail_fast ship container cable_car subway aircraft wheelchair scooter drone" speed="20.84" length="0.32" shape="1497.34,1530.87 1497.59,1530.82"/>
    </edge>
    <edge id=":JA0_0" function="internal">
        <lane id=":JA0_0_0" index="0" speed="3.90" length="2.68" shape="211.80,1267.76 211.46,1268.41 210.99,1268.79 210.40,1268.89 209.69,1268.71"/>
    </edge>
    <edge id=":JC0_0" function="internal">
        <lane id=":JC0_0_0" index="0" disallow="tram rail_urban rail rail_electric rail_fast ship container cable_car subway aircraft wheelchair scooter drone" speed="12.67" length="7.52" shape="158.32,1126.88 160.42,1126.08 161.91,1125.53 163.18,1124.71 164.60,1123.07"/>
    </edge>
    <edge id=":JC0_1" function="internal">
        <lane id=":JC0_1_0" index="0" disallow="tram rail_urban rail rail_electric rail_fast ship container cable_car subway aircraft wheelchair scooter drone" speed="22.23" length="7.08" shape="161.28,1129.73 162.06,1127.65 162.63,1126.23 163.35,1124.89 164.60,1123.07"/>
        <lane id=":JC0_1_1" index="1" disallow="tram rail_urban rail rail_electric rail_fast ship container cable_car subway aircraft wheelchair scooter drone" speed="22.23" length="7.08" shape="164.25,1130.90 164.95,1129.05 165.44,1127.78 166.07,1126.58 167.19,1124.96"/>
    </edge>
    <edge id=":JC1_0" function="internal">
        <lane id=":JC1_0_0" index="0" disallow="tram rail_urban rail rail_electric rail_fast ship container cable_car subway aircraft wheelchair scooter drone" speed="7.52" length="6.97" shape="250.65,1148.02 251.09,1149.46 252.00,1150.76 253.37,1151.92 255.19,1152.93"/>
    </edge>
    <edge id=":JC1_1" function="internal">
        <lane id=":JC1_1_0" index="0" disallow="tram rail_urban rail rail_electric rail_fast ship container cable_car subway aircraft wheelchair scooter drone" speed="14.45" length="6.78" shape="250.65,1148.02 250.97,1150.23 251.07,1151.78 250.85,1153.30 250.21,1155.42"/>
        <lane id=":JC1_1_1" index="1" disallow="tram rail_urban rail rail_electric rail_fast ship container cable_car subway aircraft wheelchair scooter drone" speed="12.97" length="6.78" shape="247.48,1148.48 247.74,1150.25 247.84,1151.49 247.68,1152.71 247.17,1154.41"/>
    </edge>
    <edge id=":JC2_0" function="internal">
        <lane id=":JC2_0_0" index="0" disallow="tram rail_urban rail rail_electric rail_fast ship container cable_car subway aircraft wheelchair scooter drone" speed="14.30" length="30.27" shape="243.27,1195.27 239.88,1197.21 236.24,1202.09 232.35,1209.91 228.21,1220.68"/>
    </edge>
    <edge id=":JC2_1" function="internal">
        <lane id=":JC2_1_0" index="0" disallow="tram rail_urban rail rail_electric rail_fast ship container cable_car subway aircraft wheelchair scooter drone" speed="21.38" length="30.34" shape="243.27,1195.27 239.18,1198.21 234.47,1204.50 229.35,1211.97 224.01,1218.43"/>
    </edge>
    <edge id=":JC2_2" function="internal">
        <lane id=":JC2_2_0" index="0" disallow="tram rail_urban rail rail_electric rail_fast ship container cable_car subway aircraft wheelchair scooter drone" speed="20.84" length="30.89" shape="238.19,1191.45 228.21,1220.68"/>
    </edge>
    <edge id=":JC2_3" function="internal">
        <lane id=":JC2_3_0" index="0" disallow="tram rail_urban rail rail_electric rail_fast ship container cable_car subway aircraft wheelchair scooter drone" speed="27.78" length="30.32" shape="238.19,1191.45 235.65,1198.68 232.60,1205.88 228.80,1212.61 224.01,1218.43"/>
        <lane id=":JC2_3_1" index="1" disallow="tram rail_urban rail rail_electric rail_fast ship container cable_car subway aircraft wheelchair scooter drone" speed="27.77" length="30.32" shape="235.16,1190.44 232.66,1197.54 229.73,1204.46 226.04,1210.91 221.30,1216.61"/>
    </edge>
    <edge id=":JC3_0" function="internal">
        <lane id=":JC3_0_0" index="0" disallow="tram rail_urban rail rail_electric rail_fast ship container cable_car subway aircraft wheelchair scooter drone" speed="27.78" length="16.11" shape="178.47,1232.24 173.73,1232.11 170.49,1232.52 167.28,1233.33 162.61,1234.40"/>
        <lane id=":JC3_0_1" index="1" disallow="tram rail_urban rail rail_electric rail_fast ship container cable_car subway aircraft wheelchair scooter drone" speed="27.78" length="16.41" shape="178.47,1232.24 173.62,1231.60 170.29,1230.91 166.98,1230.63 162.21,1231.21"/>
    </edge>
    <edge id=":JC3_2" function="internal">
        <lane id=":JC3_2_0" index="0" disallow="tram rail_urban rail rail_electric rail_fast ship container cable_car subway aircraft wheelchair scooter drone" speed="25.55" length="16.53" shape="178.47,1232.24 173.52,1231.71 170.20,1230.87 167.05,1229.42 162.62,1227.08"/>
        <lane id=":JC3_2_1" index="1" disallow="tram rail_urban rail rail_electric rail_fast ship container cable_car subway aircraft wheelchair scooter drone" speed="25.03" length="16.53" shape="178.71,1229.05 173.98,1228.52 170.80,1227.66 167.79,1226.23 163.56,1223.96"/>
    </edge>
    <edge id=":JC4_0" function="internal">
        <lane id=":JC4_0_0" index="0" disallow="tram rail_urban rail rail_electric rail_fast ship container cable_car subway aircraft wheelchair scooter drone" speed="25.00" length="31.75" shape="141.62,1200.79 140.98,1192.34 140.88,1183.04 140.82,1174.69 140.31,1169.09"/>
    </edge>
    <edge id=":JC4_1" function="internal">
        <lane id=":JC4_1_0" index="0" disallow="tram rail_urban rail rail_electric rail_fast ship container cable_car subway aircraft wheelchair scooter drone" speed="25.98" length="30.96" shape="141.62,1200.79 141.09,1193.08 141.62,1185.07 143.10,1177.18 145.45,1169.81"/>
        <lane id=":JC4_1_1" index="1" disallow="tram rail_urban rail rail_electric rail_fast ship container cable_car subway aircraft wheelchair scooter drone" speed="19.75" length="30.96" shape="144.88,1200.61 143.59,1193.28 144.10,1185.72 145.88,1178.20 148.42,1170.98"/>
    </edge>
    <edge id=":JC4_3" function="internal">
        <lane id=":JC4_3_0" index="0" disallow="tram rail_urban rail rail_electric rail_fast ship container cable_car subway aircraft wheelchair scooter drone" speed="19.45" length="30.66" shape="133.27,1198.66 136.37,1190.92 138.87,1182.31 140.33,1174.48 140.31,1169.09"/>
    </edge>
    <edge id=":JC4_4" function="internal">
        <lane id=":JC4_4_0" index="0" disallow="tram rail_urban rail rail_electric rail_fast ship container cable_car subway aircraft wheelchair scooter drone" speed="22.23" length="31.35" shape="133.27,1198.66 145.45,1169.81"/>
        <lane id=":JC4_4_1" index="1" disallow="tram rail_urban rail rail_electric rail_fast ship container cable_car subway aircraft wheelchair scooter drone" speed="22.23" length="31.35" shape="136.23,1199.90 148.42,1170.98"/>
    </edge>
    <edge id=":JM0_0" function="internal">
        <lane id=":JM0_0_0" index="0" speed="7.62" length="12.26" shape="423.46,1237.94 420.95,1237.79 418.71,1238.94 416.74,1241.38 415.05,1245.12"/>
    </edge>
    <edge id=":JM0_1" function="internal">
        <lane id=":JM0_1_0" index="0" disallow="tram rail_urban rail rail_electric rail_fast ship container cable_car subway aircraft wheelchair scooter drone" speed="20.84" length="21.16" shape="423.46,1237.94 417.33,1236.64 412.97,1236.48 408.62,1236.28 402.53,1234.83"/>
        <lane id=":JM0_1_1" index="1" disallow="tram rail_urban rail rail_electric rail_fast ship container cable_car subway aircraft wheelchair scooter drone" speed="20.84" length="21.16" shape="424.37,1234.87 418.27,1233.58 413.92,1233.43 409.59,1233.23 403.53,1231.79"/>
        <lane id=":JM0_1_2" index="2" disallow="tram rail_urban rail rail_electric rail_fast ship container cable_car subway aircraft wheelchair scooter drone" speed="20.84" length="21.16" shape="425.29,1231.81 419.21,1230.52 414.88,1230.37 410.56,1230.18 404.53,1228.75"/>
    </edge>
    <edge id=":JM0_4" function="internal">
        <lane id=":JM0_4_0" index="0" speed="9.55" length="2.93" shape="425.29,1231.81 422.69,1230.45"/>
    </edge>
    <edge id=":JM0_16" function="internal">
        <lane id=":JM0_16_0" index="0" speed="9.55" length="18.67" shape="422.69,1230.45 420.76,1229.44 418.28,1225.67 417.85,1220.49 419.48,1213.91"/>
    </edge>
    <edge id=":JM0_5" function="internal">
        <lane id=":JM0_5_0" index="0" speed="6.92" length="10.80" shape="422.48,1215.01 422.10,1217.49 422.90,1219.59 424.88,1221.29 428.05,1222.61"/>
    </edge>
    <edge id=":JM0_6" function="internal">
        <lane id=":JM0_6_0" index="0" speed="13.89" length="30.86" shape="422.48,1215.01 412.03,1244.04"/>
    </edge>
    <edge id=":JM0_7" function="internal">
        <lane id=":JM0_7_0" index="0" disallow="tram rail_urban rail rail_electric rail_fast ship container cable_car subway aircraft wheelchair scooter drone" speed="10.65" length="11.30" shape="422.48,1215.01 418.96,1222.44 416.93,1224.76"/>
    </edge>
    <edge id=":JM0_17" function="internal">
        <lane id=":JM0_17_0" index="0" disallow="tram rail_urban rail rail_electric rail_fast ship container cable_car subway aircraft wheelchair scooter drone" speed="10.65" length="13.99" shape="416.93,1224.76 414.80,1227.20 409.99,1229.31 404.53,1228.75"/>
    </edge>
    <edge id=":JM0_8" function="internal">
        <lane id=":JM0_8_0" index="0" disallow="tram rail_urban rail rail_electric rail_fast ship container cable_car subway aircraft wheelchair scooter drone" speed="8.25" length="14.39" shape="407.72,1219.00 411.81,1219.66 415.13,1219.03 417.69,1217.12 419.48,1213.91"/>
    </edge>
    <edge id=":JM0_9" function="internal">
        <lane id=":JM0_9_0" index="0" disallow="tram rail_urban rail rail_electric rail_fast ship container cable_car subway aircraft wheelchair scooter drone" speed="20.84" length="20.77" shape="407.72,1219.00 413.68,1220.37 417.89,1220.78 422.09,1221.21 428.05,1222.61"/>
        <lane id=":JM0_9_1" index="1" disallow="tram rail_urban rail rail_electric rail_fast ship container cable_car subway aircraft wheelchair scooter drone" speed="20.84" length="20.77" shape="406.72,1222.04 412.71,1223.42 416.93,1223.83 421.15,1224.26 427.13,1225.68"/>
        <lane id=":JM0_9_2" index="2" disallow="tram rail_urban rail rail_electric rail_fast ship container cable_car subway aircraft wheelchair scooter drone" speed="20.84" length="20.77" shape="405.72,1225.09 411.74,1226.47 415.98,1226.89 420.21,1227.32 426.21,1228.74"/>
    </edge>
    <edge id=":JM0_12" function="internal">
        <lane id=":JM0_12_0" index="0" disallow="tram rail_urban rail rail_electric rail_fast ship container cable_car subway aircraft wheelchair scooter drone" speed="9.83" length="5.43" shape="405.72,1225.09 410.55,1227.56"/>
    </edge>
    <edge id=":JM0_18" function="internal">
        <lane id=":JM0_18_0" index="0" disallow="tram rail_urban rail rail_electric rail_fast ship container cable_car subway aircraft wheelchair scooter drone" speed="9.83" length="17.51" shape="410.55,1227.56 413.22,1231.55 413.71,1237.04 412.03,1244.04"/>
    </edge>
    <edge id=":JM0_13" function="internal">
        <lane id=":JM0_13_0" index="0" disallow="tram rail_urban rail rail_electric rail_fast ship container cable_car subway aircraft wheelchair scooter drone" speed="6.45" length="9.03" shape="406.00,1241.90 406.50,1239.46 406.08,1237.47 404.76,1235.93 402.53,1234.83"/>
    </edge>
    <edge id=":JM0_14" function="internal">
        <lane id=":JM0_14_0" index="0" speed="13.89" length="31.07" shape="406.00,1241.90 409.28,1234.21 413.36,1226.13 417.12,1218.94 419.48,1213.91"/>
    </edge>
    <edge id=":JM0_15" function="internal">
        <lane id=":JM0_15_0" index="0" speed="10.62" length="8.20" shape="409.02,1242.97 412.43,1235.52"/>
    </edge>
    <edge id=":JM0_19" function="internal">
        <lane id=":JM0_19_0" index="0" speed="10.62" length="16.61" shape="412.43,1235.52 416.43,1230.66 421.03,1228.40 426.21,1228.74"/>
    </edge>
    <edge id=":JM1_0" function="internal">
        <lane id=":JM1_0_0" index="0" speed="7.91" length="12.88" shape="891.54,1374.11 889.02,1374.14 886.76,1375.49 884.76,1378.17 883.03,1382.19"/>
    </edge>
    <edge id=":JM1_1" function="internal">
        <lane id=":JM1_1_0" index="0" speed="13.89" length="27.38" shape="891.54,1374.11 885.04,1373.04 879.22,1372.66 872.76,1372.00 864.30,1370.02"/>
        <lane id=":JM1_1_1" index="1" speed="13.89" length="27.38" shape="892.29,1371.01 885.81,1369.93 880.03,1369.57 873.61,1368.91 865.22,1366.96"/>
        <lane id=":JM1_1_2" index="2" speed="13.89" length="27.38" shape="892.29,1371.01 866.14,1363.89"/>
    </edge>
    <edge id=":JM1_4" function="internal">
        <lane id=":JM1_4_0" index="0" speed="9.84" length="6.84" shape="892.29,1371.01 886.31,1368.58 886.05,1368.31"/>
    </edge>
    <edge id=":JM1_17" function="internal">
        <lane id=":JM1_17_0" index="0" speed="9.84" length="16.68" shape="886.05,1368.31 882.73,1364.81 881.56,1359.68 882.80,1353.21"/>
    </edge>
    <edge id=":JM1_5" function="internal">
        <lane id=":JM1_5_0" index="0" speed="7.31" length="12.49" shape="888.85,1355.28 888.18,1358.75 888.78,1361.49 890.66,1363.50 893.81,1364.79"/>
    </edge>
    <edge id=":JM1_6" function="internal">
        <lane id=":JM1_6_0" index="0" speed="13.89" length="27.50" shape="888.85,1355.28 887.21,1361.64 886.40,1367.40 885.36,1373.82 883.03,1382.19"/>
        <lane id=":JM1_6_1" index="1" speed="13.89" length="27.50" shape="885.83,1354.24 884.18,1360.61 883.37,1366.36 882.34,1372.78 880.00,1381.15"/>
        <lane id=":JM1_6_2" index="2" speed="13.89" length="27.50" shape="885.83,1354.24 876.97,1380.12"/>
    </edge>
    <edge id=":JM1_9" function="internal">
        <lane id=":JM1_9_0" index="0" speed="7.62" length="12.40" shape="868.89,1354.69 872.98,1355.56 876.15,1355.42 878.42,1354.30 879.77,1352.17"/>
    </edge>
    <edge id=":JM1_10" function="internal">
        <lane id=":JM1_10_0" index="0" speed="13.89" length="27.01" shape="868.89,1354.69 876.85,1357.57 882.53,1360.30 887.62,1362.76 893.81,1364.79"/>
        <lane id=":JM1_10_1" index="1" speed="13.89" length="27.01" shape="867.97,1357.76 875.99,1360.65 881.73,1363.40 886.85,1365.86 893.05,1367.90"/>
    </edge>
    <edge id=":JM1_12" function="internal">
        <lane id=":JM1_12_0" index="0" speed="10.31" length="4.25" shape="867.06,1360.82 870.92,1362.61"/>
    </edge>
    <edge id=":JM1_18" function="internal">
        <lane id=":JM1_18_0" index="0" speed="10.31" length="20.70" shape="870.92,1362.61 873.30,1363.71 877.03,1367.89 878.25,1373.36 876.97,1380.12"/>
    </edge>
    <edge id=":JM1_13" function="internal">
        <lane id=":JM1_13_0" index="0" speed="6.42" length="9.04" shape="867.89,1377.00 868.35,1374.56 867.91,1372.58 866.56,1371.07 864.30,1370.02"/>
    </edge>
    <edge id=":JM1_14" function="internal">
        <lane id=":JM1_14_0" index="0" speed="13.89" length="27.57" shape="867.89,1377.00 871.17,1368.96 874.29,1363.25 877.18,1358.21 879.77,1352.17"/>
        <lane id=":JM1_14_1" index="1" speed="13.89" length="27.57" shape="870.92,1378.04 874.20,1370.00 877.32,1364.29 880.20,1359.25 882.80,1353.21"/>
    </edge>
    <edge id=":JM1_16" function="internal">
        <lane id=":JM1_16_0" index="0" speed="10.78" length="5.39" shape="873.94,1379.08 876.34,1374.25"/>
    </edge>
    <edge id=":JM1_19" function="internal">
        <lane id=":JM1_19_0" index="0" speed="10.78" length="19.37" shape="876.34,1374.25 877.02,1372.90 881.22,1368.98 886.57,1367.31 893.05,1367.90"/>
    </edge>
    <edge id=":JM2_0" function="internal">
        <lane id=":JM2_0_0" index="0" disallow="tram rail_urban rail rail_electric rail_fast ship container cable_car subway aircraft wheelchair scooter drone" speed="6.15" length="8.47" shape="1164.68,1418.83 1164.34,1420.99 1164.89,1422.73 1166.34,1424.04 1168.69,1424.92"/>
        <lane id=":JM2_0_1" index="1" disallow="tram rail_urban rail rail_electric rail_fast ship container cable_car subway aircraft wheelchair scooter drone" speed="7.71" length="13.95" shape="1161.64,1417.82 1161.03,1421.49 1161.88,1424.41 1164.19,1426.59 1167.95,1428.03"/>
        <lane id=":JM2_0_2" index="2" disallow="tram rail_urban rail rail_electric rail_fast ship container cable_car subway aircraft wheelchair scooter drone" speed="9.00" length="19.44" shape="1158.60,1416.82 1157.73,1421.98 1158.87,1426.08 1162.03,1429.14 1167.20,1431.14"/>
    </edge>
    <edge id=":JM2_3" function="internal">
        <lane id=":JM2_3_0" index="0" disallow="tram rail_urban rail rail_electric rail_fast ship container cable_car subway aircraft wheelchair scooter drone" speed="11.29" length="27.46" shape="1158.60,1416.82 1154.96,1425.63 1150.81,1431.55 1146.16,1434.57 1141.01,1434.71"/>
        <lane id=":JM2_3_1" index="1" disallow="tram rail_urban rail rail_electric rail_fast ship container cable_car subway aircraft wheelchair scooter drone" speed="10.90" length="25.51" shape="1155.57,1415.81 1152.08,1424.78 1148.49,1430.92 1144.80,1434.23 1141.01,1434.71"/>
        <lane id=":JM2_3_2" index="2" disallow="tram rail_urban rail rail_electric rail_fast ship container cable_car subway aircraft wheelchair scooter drone" speed="9.90" length="20.91" shape="1152.53,1414.80 1149.62,1422.59 1146.86,1427.98 1144.24,1430.99 1141.77,1431.60"/>
    </edge>
    <edge id=":JM2_6" function="internal">
        <lane id=":JM2_6_0" index="0" disallow="tram rail_urban rail rail_electric rail_fast ship container cable_car subway aircraft wheelchair scooter drone" speed="20.84" length="25.00" shape="1143.28,1425.38 1149.61,1425.89 1154.99,1424.93 1160.87,1424.08 1168.69,1424.92"/>
        <lane id=":JM2_6_1" index="1" disallow="tram rail_urban rail rail_electric rail_fast ship container cable_car subway aircraft wheelchair scooter drone" speed="20.84" length="25.00" shape="1143.28,1425.38 1149.53,1426.39 1154.73,1426.51 1160.37,1426.73 1167.95,1428.03"/>
        <lane id=":JM2_6_2" index="2" disallow="tram rail_urban rail rail_electric rail_fast ship container cable_car subway aircraft wheelchair scooter drone" speed="20.84" length="25.00" shape="1142.52,1428.49 1148.78,1429.50 1153.98,1429.62 1159.62,1429.84 1167.20,1431.14"/>
        <lane id=":JM2_6_3" index="3" disallow="tram rail_urban rail rail_electric rail_fast ship container cable_car subway aircraft wheelchair scooter drone" speed="20.84" length="25.00" shape="1142.52,1428.49 1166.46,1434.26"/>
    </edge>
    <edge id=":JR1_0" function="internal">
        <lane id=":JR1_0_0" index="0" speed="13.89" length="0.40" shape="1400.56,769.70 1400.34,770.18"/>
        <lane id=":JR1_0_1" index="1" speed="13.89" length="0.40" shape="1397.71,768.26 1397.52,768.66"/>
        <lane id=":JR1_0_2" index="2" speed="13.89" length="0.40" shape="1394.85,766.81 1394.71,767.14"/>
        <lane id=":JR1_0_3" index="3" speed="13.89" length="0.40" shape="1391.99,765.37 1391.89,765.62"/>
    </edge>
    <edge id=":JR2_0" function="internal">
        <lane id=":JR2_0_0" index="0" disallow="tram rail_urban rail rail_electric rail_fast ship container cable_car subway aircraft wheelchair scooter drone" speed="20.84" length="0.30" shape="1354.88,854.43 1354.76,854.66"/>
        <lane id=":JR2_0_1" index="1" disallow="tram rail_urban rail rail_electric rail_fast ship container cable_car subway aircraft wheelchair scooter drone" speed="20.84" length="0.30" shape="1352.06,852.91 1351.94,853.16"/>
        <lane id=":JR2_0_2" index="2" disallow="tram rail_urban rail rail_electric rail_fast ship container cable_car subway aircraft wheelchair scooter drone" speed="20.84" length="0.30" shape="1349.25,851.39 1349.11,851.67"/>
        <lane id=":JR2_0_3" index="3" disallow="tram rail_urban rail rail_electric rail_fast ship container cable_car subway aircraft wheelchair scooter drone" speed="20.84" length="0.30" shape="1346.43,849.87 1346.28,850.17"/>
    </edge>
    <edge id=":JR3_0" function="internal">
        <lane id=":JR3_0_0" index="0" disallow="tram rail_urban rail rail_electric rail_fast ship container cable_car subway aircraft wheelchair scooter drone" speed="27.78" length="0.30" shape="1307.67,943.74 1307.53,944.00"/>
        <lane id=":JR3_0_1" index="1" disallow="tram rail_urban rail rail_electric rail_fast ship container cable_car subway aircraft wheelchair scooter drone" speed="27.78" length="0.30" shape="1304.84,942.25 1304.70,942.51"/>
        <lane id=":JR3_0_2" index="2" disallow="tram rail_urban rail rail_electric rail_fast ship container cable_car subway aircraft wheelchair scooter drone" speed="27.78" length="0.30" shape="1302.02,940.75 1301.88,941.02"/>
        <lane id=":JR3_0_3" index="3" disallow="tram rail_urban rail rail_electric rail_fast ship container cable_car subway aircraft wheelchair scooter drone" speed="27.78" length="0.30" shape="1299.19,939.25 1299.05,939.52"/>
    </edge>
    <edge id=":JR4_0" function="internal">
        <lane id=":JR4_0_0" index="0" disallow="tram rail_urban rail rail_electric rail_fast ship container cable_car subway aircraft wheelchair scooter drone" speed="27.78" length="0.66" shape="1285.74,988.12 1285.72,988.17 1285.71,988.20 1285.70,988.23 1285.68,988.28"/>
        <lane id=":JR4_0_1" index="1" disallow="tram rail_urban rail rail_electric rail_fast ship container cable_car subway aircraft wheelchair scooter drone" speed="27.78" length="0.66" shape="1282.84,986.78 1282.78,986.91 1282.74,987.00 1282.70,987.09 1282.66,987.23"/>
        <lane id=":JR4_0_2" index="2" disallow="tram rail_urban rail rail_electric rail_fast ship container cable_car subway aircraft wheelchair scooter drone" speed="27.78" length="0.66" shape="1279.94,985.43 1279.84,985.65 1279.77,985.80 1279.71,985.96 1279.63,986.19"/>