<?xml version="1.0" encoding="UTF-8"?>

<net version="1.20" junctionCornerDetail="5" limitTurnSpeed="5.50" xmlns:xsi="http://www.w3.org/2001/XMLSchema-instance" xsi:noNamespaceSchemaLocation="http://sumo.dlr.de/xsd/net_file.xsd">

    <location netOffset="-400334.99,-4470216.50" convBoundary="-27.55,1049.42,1536.33,1565.81" origBoundary="49.825880,40.376771,49.850430,40.392606" projParameter="+proj=utm +zone=39 +ellps=WGS84 +datum=WGS84 +units=m +no_defs"/>

    <type id="highway.primary" priority="12" numLanes="2" speed="27.78" disallow="tram rail_urban rail rail_electric rail_fast ship container cable_car subway aircraft wheelchair scooter drone" oneway="0"/>
    <type id="highway.primary_link" priority="7" numLanes="1" speed="22.22" disallow="tram rail_urban rail rail_electric rail_fast ship container cable_car subway aircraft wheelchair scooter drone" oneway="0"/>

    <edge id=":-JA1_0" function="internal">
        <lane id=":-JA1_0_0" index="0" disallow="tram rail_urban rail rail_electric rail_fast ship container cable_car subway aircraft wheelchair scooter drone" speed="27.78" length="1.03" shape="133.92,1247.30 133.79,1247.39 133.71,1247.45 133.64,1247.53 133.55,1247.66"/>
        <lane id=":-JA1_0_1" index="1" disallow="tram rail_urban rail rail_electric rail_fast ship container cable_car subway aircraft wheelchair scooter drone" speed="12.21" length="1.03" shape="132.07,1244.69 131.70,1244.95 131.46,1245.16 131.25,1245.39 130.97,1245.76"/>
    </edge>
    <edge id=":J1_0" function="internal">
        <lane id=":J1_0_0" index="0" disallow="tram rail_urban rail rail_electric rail_fast ship container cable_car subway aircraft wheelchair scooter drone" speed="8.05" length="4.22" shape="54.17,1133.07 53.40,1132.11 52.74,1131.54 51.95,1131.17 50.76,1130.81"/>
    </edge>
    <edge id=":J1_1" function="internal">
        <lane id=":J1_1_0" index="0" speed="13.89" length="4.36" shape="55.83,1128.98 51.65,1127.74"/>
        <lane id=":J1_1_1" index="1" speed="13.89" length="4.36" shape="56.72,1125.91 52.53,1124.66"/>
    </edge>
    <edge id=":J1_3" function="internal">
        <lane id=":J1_3_0" index="0" speed="8.97" length="3.82" shape="55.18,1115.44 56.27,1115.73 57.05,1115.83 57.83,1115.74 58.93,1115.48"/>
    </edge>
    <edge id=":J1_4" function="internal">
        <lane id=":J1_4_0" index="0" speed="13.89" length="4.38" shape="54.30,1118.51 58.51,1119.76"/>
        <lane id=":J1_4_1" index="1" speed="13.89" length="4.38" shape="53.42,1121.59 57.61,1122.83"/>
    </edge>
    <edge id=":J2_0" function="internal">
        <lane id=":J2_0_0" index="0" speed="13.89" length="14.74" shape="385.55,1228.20 381.02,1226.92 377.59,1225.99 374.57,1225.26 371.27,1224.58"/>
    </edge>
    <edge id=":J2_1" function="internal">
        <lane id=":J2_1_0" index="0" speed="13.89" length="14.58" shape="386.42,1225.12 372.42,1221.04"/>
        <lane id=":J2_1_1" index="1" speed="13.89" length="14.58" shape="387.29,1222.05 373.31,1217.97"/>
    </edge>
    <edge id=":J2_3" function="internal">
        <lane id=":J2_3_0" index="0" speed="13.89" length="14.50" shape="376.14,1208.30 389.91,1212.81"/>
    </edge>
    <edge id=":J2_4" function="internal">
        <lane id=":J2_4_0" index="0" speed="13.89" length="14.53" shape="375.11,1211.83 389.04,1215.89"/>
        <lane id=":J2_4_1" index="1" speed="13.89" length="14.53" shape="374.21,1214.90 388.17,1218.97"/>
    </edge>
    <edge id=":J3_0" function="internal">
        <lane id=":J3_0_0" index="0" speed="13.89" length="0.31" shape="1376.93,1508.66 1377.00,1508.69 1377.04,1508.73 1377.09,1508.77 1377.16,1508.81"/>
        <lane id=":J3_0_1" index="1" speed="13.89" length="0.31" shape="1376.03,1511.73 1376.11,1511.77 1376.16,1511.81 1376.20,1511.85 1376.28,1511.89"/>
        <lane id=":J3_0_2" index="2" speed="13.89" length="0.31" shape="1375.13,1514.80 1375.22,1514.84 1375.27,1514.88 1375.32,1514.93 1375.41,1514.96"/>
        <lane id=":J3_0_3" index="3" speed="13.89" length="0.31" shape="1374.23,1517.87 1374.32,1517.91 1374.38,1517.96 1374.44,1518.00 1374.53,1518.04"/>
    </edge>
    <edge id=":JC0_0" function="internal">
        <lane id=":JC0_0_0" index="0" disallow="tram rail_urban rail rail_electric rail_fast ship container cable_car subway aircraft wheelchair scooter drone" speed="15.28" length="12.76" shape="155.89,1128.58 158.82,1127.16 161.22,1125.90 163.49,1124.12 166.01,1121.14"/>
    </edge>
    <edge id=":JC0_1" function="internal">
        <lane id=":JC0_1_0" index="0" disallow="tram rail_urban rail rail_electric rail_fast ship container cable_car subway aircraft wheelchair scooter drone" speed="22.23" length="12.40" shape="160.19,1132.47 161.56,1128.92 162.57,1126.51 163.85,1124.25 166.01,1121.14"/>
        <lane id=":JC0_1_1" index="1" disallow="tram rail_urban rail rail_electric rail_fast ship container cable_car subway aircraft wheelchair scooter drone" speed="22.23" length="12.40" shape="163.17,1133.65 164.45,1130.32 165.38,1128.06 166.57,1125.94 168.59,1123.03"/>
    </edge>
    <edge id=":JC1_0" function="internal">
        <lane id=":JC1_0_0" index="0" disallow="tram rail_urban rail rail_electric rail_fast ship container cable_car subway aircraft wheelchair scooter drone" speed="15.28" length="14.82" shape="250.53,1147.19 251.12,1151.90 251.57,1155.47 252.28,1158.51 253.63,1161.58"/>
    </edge>
    <edge id=":JC1_1" function="internal">
        <lane id=":JC1_1_0" index="0" disallow="tram rail_urban rail rail_electric rail_fast ship container cable_car subway aircraft wheelchair scooter drone" speed="20.04" length="13.89" shape="250.53,1147.19 250.92,1151.46 250.61,1154.41 249.68,1157.30 248.22,1161.39"/>
        <lane id=":JC1_1_1" index="1" disallow="tram rail_urban rail rail_electric rail_fast ship container cable_car subway aircraft wheelchair scooter drone" speed="19.00" length="13.89" shape="247.36,1147.65 247.69,1151.47 247.38,1154.12 246.51,1156.71 245.18,1160.38"/>
    </edge>
    <edge id=":JC2_0" function="internal">
        <lane id=":JC2_0_0" index="0" disallow="tram rail_urban rail rail_electric rail_fast ship container cable_car subway aircraft wheelchair scooter drone" speed="20.84" length="13.85" shape="241.01,1199.63 238.21,1201.45 235.87,1203.21 233.60,1205.53 231.02,1209.02"/>
    </edge>
    <edge id=":JC2_1" function="internal">
        <lane id=":JC2_1_0" index="0" disallow="tram rail_urban rail rail_electric rail_fast ship container cable_car subway aircraft wheelchair scooter drone" speed="27.78" length="13.39" shape="236.53,1196.43 235.29,1200.35 234.39,1203.03 233.19,1205.56 231.02,1209.02"/>
        <lane id=":JC2_1_1" index="1" disallow="tram rail_urban rail rail_electric rail_fast ship container cable_car subway aircraft wheelchair scooter drone" speed="27.78" length="13.39" shape="233.49,1195.42 232.34,1199.09 231.51,1201.61 230.39,1203.99 228.36,1207.24"/>
    </edge>
    <edge id=":JC3_0" function="internal">
        <lane id=":JC3_0_0" index="0" disallow="tram rail_urban rail rail_electric rail_fast ship container cable_car subway aircraft wheelchair scooter drone" speed="27.78" length="16.11" shape="178.47,1232.24 173.73,1232.11 170.49,1232.52 167.28,1233.33 162.61,1234.40"/>
        <lane id=":JC3_0_1" index="1" disallow="tram rail_urban rail rail_electric rail_fast ship container cable_car subway aircraft wheelchair scooter drone" speed="27.78" length="16.41" shape="178.47,1232.24 173.62,1231.60 170.29,1230.91 166.98,1230.63 162.21,1231.21"/>
    </edge>
    <edge id=":JC3_2" function="internal">
        <lane id=":JC3_2_0" index="0" disallow="tram rail_urban rail rail_electric rail_fast ship container cable_car subway aircraft wheelchair scooter drone" speed="25.55" length="16.53" shape="178.47,1232.24 173.52,1231.71 170.20,1230.87 167.05,1229.42 162.62,1227.08"/>
        <lane id=":JC3_2_1" index="1" disallow="tram rail_urban rail rail_electric rail_fast ship container cable_car subway aircraft wheelchair scooter drone" speed="25.03" length="16.53" shape="178.71,1229.05 173.98,1228.52 170.80,1227.66 167.79,1226.23 163.56,1223.96"/>
    </edge>
    <edge id=":JC4_0" function="internal">
        <lane id=":JC4_0_0" index="0" disallow="tram rail_urban rail rail_electric rail_fast ship container cable_car subway aircraft wheelchair scooter drone" speed="25.00" length="31.75" shape="141.62,1200.79 140.98,1192.34 140.88,1183.04 140.82,1174.69 140.31,1169.09"/>
    </edge>
    <edge id=":JC4_1" function="internal">
        <lane id=":JC4_1_0" index="0" disallow="tram rail_urban rail rail_electric rail_fast ship container cable_car subway aircraft wheelchair scooter drone" speed="25.98" length="30.96" shape="141.62,1200.79 141.09,1193.08 141.62,1185.07 143.10,1177.18 145.45,1169.81"/>
        <lane id=":JC4_1_1" index="1" disallow="tram rail_urban rail rail_electric rail_fast ship container cable_car subway aircraft wheelchair scooter drone" speed="19.75" length="30.96" shape="144.88,1200.61 143.59,1193.28 144.10,1185.72 145.88,1178.20 148.42,1170.98"/>
    </edge>
    <edge id=":JC4_3" function="internal">
        <lane id=":JC4_3_0" index="0" disallow="tram rail_urban rail rail_electric rail_fast ship container cable_car subway aircraft wheelchair scooter drone" speed="19.45" length="30.66" shape="133.27,1198.66 136.37,1190.92 138.87,1182.31 140.33,1174.48 140.31,1169.09"/>
    </edge>
    <edge id=":JC4_4" function="internal">
        <lane id=":JC4_4_0" index="0" disallow="tram rail_urban rail rail_electric rail_fast ship container cable_car subway aircraft wheelchair scooter drone" speed="22.23" length="31.35" shape="133.27,1198.66 145.45,1169.81"/>
        <lane id=":JC4_4_1" index="1" disallow="tram rail_urban rail rail_electric rail_fast ship container cable_car subway aircraft wheelchair scooter drone" speed="22.23" length="31.35" shape="136.23,1199.90 148.42,1170.98"/>
    </edge>
    <edge id=":JM0_0" function="internal">
        <lane id=":JM0_0_0" index="0" speed="6.86" length="9.71" shape="486.80,1257.10 484.36,1256.77 482.30,1257.39 480.64,1258.95 479.36,1261.46"/>
    </edge>
    <edge id=":JM0_1" function="internal">
        <lane id=":JM0_1_0" index="0" speed="13.89" length="20.91" shape="486.80,1257.10 466.79,1251.24"/>
        <lane id=":JM0_1_1" index="1" speed="13.89" length="20.91" shape="487.73,1254.03 467.66,1248.17"/>
        <lane id=":JM0_1_2" index="2" speed="13.89" length="20.91" shape="488.66,1250.97 468.53,1245.09"/>
    </edge>
    <edge id=":JM0_4" function="internal">
        <lane id=":JM0_4_0" index="0" speed="9.60" length="3.63" shape="488.66,1250.97 485.44,1249.28"/>
    </edge>
    <edge id=":JM0_17" function="internal">
        <lane id=":JM0_17_0" index="0" speed="9.60" length="17.95" shape="485.44,1249.28 484.14,1248.60 481.64,1244.83 481.15,1239.65 482.69,1233.08"/>
    </edge>
    <edge id=":JM0_5" function="internal">
        <lane id=":JM0_5_0" index="0" speed="6.98" length="10.90" shape="485.71,1234.13 485.37,1236.62 486.21,1238.72 488.23,1240.44 491.43,1241.78"/>
    </edge>
    <edge id=":JM0_6" function="internal">
        <lane id=":JM0_6_0" index="0" speed="13.89" length="27.96" shape="485.71,1234.13 484.50,1239.07 483.20,1246.04 481.56,1253.89 479.36,1261.46"/>
        <lane id=":JM0_6_1" index="1" speed="13.89" length="27.96" shape="485.71,1234.13 476.35,1260.37"/>
    </edge>
    <edge id=":JM0_8" function="internal">
        <lane id=":JM0_8_0" index="0" speed="10.26" length="8.90" shape="485.71,1234.13 482.75,1240.22 481.24,1241.72"/>
    </edge>
    <edge id=":JM0_18" function="internal">
        <lane id=":JM0_18_0" index="0" speed="10.26" length="13.98" shape="481.24,1241.72 478.90,1244.07 474.16,1245.69 468.53,1245.09"/>
    </edge>
    <edge id=":JM0_9" function="internal">
        <lane id=":JM0_9_0" index="0" speed="7.89" length="13.13" shape="471.15,1235.85 475.48,1236.70 478.84,1236.52 481.25,1235.31 482.69,1233.08"/>
    </edge>
    <edge id=":JM0_10" function="internal">
        <lane id=":JM0_10_0" index="0" speed="13.89" length="21.07" shape="471.15,1235.85 491.43,1241.78"/>
        <lane id=":JM0_10_1" index="1" speed="13.89" length="21.07" shape="470.28,1238.93 490.51,1244.85"/>
        <lane id=":JM0_10_2" index="2" speed="13.89" length="21.07" shape="469.41,1242.01 489.58,1247.91"/>
    </edge>
    <edge id=":JM0_13" function="internal">
        <lane id=":JM0_13_0" index="0" speed="9.73" length="4.27" shape="469.41,1242.01 473.24,1243.87"/>
    </edge>
    <edge id=":JM0_19" function="internal">
        <lane id=":JM0_19_0" index="0" speed="9.73" length="18.42" shape="473.24,1243.87 474.47,1244.47 477.32,1248.35 477.94,1253.65 476.35,1260.37"/>
    </edge>
    <edge id=":JM0_14" function="internal">
        <lane id=":JM0_14_0" index="0" speed="6.36" length="9.04" shape="470.34,1258.18 470.85,1255.73 470.43,1253.76 469.07,1252.26 466.79,1251.24"/>
    </edge>
    <edge id=":JM0_15" function="internal">
        <lane id=":JM0_15_0" index="0" speed="13.89" length="28.00" shape="470.34,1258.18 473.48,1250.96 477.18,1243.87 480.54,1237.67 482.69,1233.08"/>
    </edge>
    <edge id=":JM0_16" function="internal">
        <lane id=":JM0_16_0" index="0" speed="10.09" length="6.48" shape="473.34,1259.27 476.17,1253.45"/>
    </edge>
    <edge id=":JM0_20" function="internal">
        <lane id=":JM0_20_0" index="0" speed="10.09" length="15.72" shape="476.17,1253.45 476.36,1253.06 480.07,1249.10 484.48,1247.38 489.58,1247.91"/>
    </edge>
    <edge id=":JM1_0" function="internal">
        <lane id=":JM1_0_0" index="0" speed="7.66" length="12.52" shape="857.40,1365.58 854.89,1365.46 852.64,1366.67 850.67,1369.21 848.98,1373.09"/>
    </edge>
    <edge id=":JM1_1" function="internal">
        <lane id=":JM1_1_0" index="0" speed="13.89" length="27.55" shape="857.40,1365.58 850.97,1364.21 845.17,1363.69 838.70,1362.94 830.24,1360.94"/>
        <lane id=":JM1_1_1" index="1" speed="13.89" length="27.55" shape="858.31,1362.51 851.88,1361.15 846.07,1360.62 839.60,1359.87 831.13,1357.86"/>
        <lane id=":JM1_1_2" index="2" speed="13.89" length="27.55" shape="858.31,1362.51 832.02,1354.79"/>
    </edge>
    <edge id=":JM1_4" function="internal">
        <lane id=":JM1_4_0" index="0" speed="9.91" length="6.96" shape="858.31,1362.51 852.32,1359.77 852.08,1359.49"/>
    </edge>
    <edge id=":JM1_17" function="internal">
        <lane id=":JM1_17_0" index="0" speed="9.91" length="16.65" shape="852.08,1359.49 848.80,1355.83 847.74,1350.69 849.14,1344.36"/>
    </edge>
    <edge id=":JM1_5" function="internal">
        <lane id=":JM1_5_0" index="0" speed="7.41" length="12.72" shape="855.13,1346.63 854.38,1350.02 854.97,1352.78 856.89,1354.90 860.13,1356.38"/>
    </edge>
    <edge id=":JM1_6" function="internal">
        <lane id=":JM1_6_0" index="0" speed="13.89" length="27.22" shape="855.13,1346.63 853.29,1352.90 852.37,1358.55 851.30,1364.85 848.98,1373.09"/>
        <lane id=":JM1_6_1" index="1" speed="13.89" length="27.22" shape="852.14,1345.49 850.29,1351.77 849.37,1357.44 848.28,1363.78 845.95,1372.05"/>
        <lane id=":JM1_6_2" index="2" speed="13.89" length="27.22" shape="852.14,1345.49 842.92,1371.01"/>
    </edge>
    <edge id=":JM1_9" function="internal">
        <lane id=":JM1_9_0" index="0" speed="7.85" length="12.90" shape="834.69,1345.57 838.96,1346.50 842.30,1346.41 844.69,1345.32 846.15,1343.22"/>
    </edge>
    <edge id=":JM1_10" function="internal">
        <lane id=":JM1_10_0" index="0" speed="13.89" length="27.68" shape="834.69,1345.57 842.90,1348.54 848.78,1351.40 853.98,1354.05 860.13,1356.38"/>
        <lane id=":JM1_10_1" index="1" speed="13.89" length="27.68" shape="833.80,1348.64 842.00,1351.61 847.88,1354.47 853.07,1357.12 859.22,1359.45"/>
    </edge>
    <edge id=":JM1_12" function="internal">
        <lane id=":JM1_12_0" index="0" speed="10.32" length="4.79" shape="832.91,1351.71 837.25,1353.73"/>
    </edge>
    <edge id=":JM1_18" function="internal">
        <lane id=":JM1_18_0" index="0" speed="10.32" length="20.22" shape="837.25,1353.73 839.19,1354.63 842.95,1358.82 844.20,1364.28 842.92,1371.01"/>
    </edge>
    <edge id=":JM1_13" function="internal">
        <lane id=":JM1_13_0" index="0" speed="6.42" length="9.02" shape="833.84,1367.90 834.30,1365.47 833.85,1363.50 832.50,1361.99 830.24,1360.94"/>
    </edge>
    <edge id=":JM1_14" function="internal">
        <lane id=":JM1_14_0" index="0" speed="13.89" length="27.58" shape="833.84,1367.90 837.16,1359.85 840.34,1354.17 843.36,1349.18 846.15,1343.22"/>
        <lane id=":JM1_14_1" index="1" speed="13.89" length="27.58" shape="836.87,1368.94 840.17,1360.93 843.35,1355.28 846.35,1350.31 849.14,1344.36"/>
    </edge>
    <edge id=":JM1_16" function="internal">
        <lane id=":JM1_16_0" index="0" speed="10.60" length="5.96" shape="839.90,1369.97 842.57,1364.64"/>
    </edge>
    <edge id=":JM1_19" function="internal">
        <lane id=":JM1_19_0" index="0" speed="10.60" length="18.90" shape="842.57,1364.64 843.01,1363.78 847.26,1359.96 852.67,1358.51 859.22,1359.45"/>
    </edge>
    <edge id=":JM2_0" function="internal">
        <lane id=":JM2_0_0" index="0" speed="6.30" length="9.04" shape="1129.95,1430.32 1129.35,1432.76 1129.71,1434.74 1131.04,1436.25 1133.32,1437.29"/>
        <lane id=":JM2_0_1" index="1" speed="7.83" length="14.58" shape="1126.98,1429.13 1126.02,1433.06 1126.60,1436.25 1128.74,1438.68 1132.42,1440.36"/>
        <lane id=":JM2_0_2" index="2" speed="9.11" length="20.12" shape="1124.01,1427.93 1122.68,1433.36 1123.49,1437.75 1126.44,1441.11 1131.52,1443.43"/>
    </edge>
    <edge id=":JM2_3" function="internal">
        <lane id=":JM2_3_0" index="0" speed="9.87" length="20.55" shape="1121.05,1426.73 1117.87,1433.30 1114.55,1437.68 1111.06,1439.86 1107.42,1439.86"/>
        <lane id=":JM2_3_1" index="1" speed="8.74" length="15.88" shape="1118.08,1425.53 1115.56,1430.97 1113.09,1434.66 1110.68,1436.60 1108.33,1436.79"/>
    </edge>
    <edge id=":JM2_5" function="internal">
        <lane id=":JM2_5_0" index="0" speed="13.89" length="24.48" shape="1110.16,1430.65 1133.32,1437.29"/>
        <lane id=":JM2_5_1" index="1" speed="13.89" length="24.48" shape="1110.16,1430.65 1116.04,1432.89 1120.51,1435.30 1125.38,1437.81 1132.42,1440.36"/>
        <lane id=":JM2_5_2" index="2" speed="13.89" length="24.48" shape="1109.25,1433.72 1115.13,1435.96 1119.61,1438.36 1124.47,1440.87 1131.52,1443.43"/>
        <lane id=":JM2_5_3" index="3" speed="13.89" length="24.48" shape="1109.25,1433.72 1114.95,1436.43 1119.05,1439.87 1123.59,1443.43 1130.63,1446.50"/>
    </edge>
    <edge id=":JR1_0" function="internal">
        <lane id=":JR1_0_0" index="0" speed="13.89" length="9.87" shape="1193.47,1275.49 1192.06,1277.53 1191.17,1278.97 1190.44,1280.51 1189.50,1282.80"/>
        <lane id=":JR1_0_1" index="1" speed="13.89" length="9.87" shape="1190.86,1273.65 1189.32,1275.86 1188.35,1277.44 1187.56,1279.11 1186.53,1281.60"/>
        <lane id=":JR1_0_2" index="2" speed="13.89" length="9.87" shape="1188.24,1271.81 1186.58,1274.20 1185.53,1275.90 1184.67,1277.71 1183.56,1280.40"/>
        <lane id=":JR1_0_3" index="3" speed="13.89" length="9.87" shape="1185.63,1269.97 1183.84,1272.54 1182.71,1274.37 1181.79,1276.31 1180.60,1279.20"/>
        <lane id=":JR1_0_4" index="4" speed="13.89" length="9.87" shape="1185.63,1269.97 1183.30,1272.44 1181.20,1273.75 1179.31,1275.18 1177.63,1278.01"/>
    </edge>

    <edge id="-E0" from="J1" to="J0" priority="-1">
        <lane id="-E0_0" index="0" speed="13.89" length="83.79" shape="50.76,1130.81 -29.76,1107.66"/>
        <lane id="-E0_1" index="1" speed="13.89" length="83.79" shape="51.65,1127.74 -28.88,1104.58"/>
        <lane id="-E0_2" index="2" speed="13.89" length="83.79" shape="52.53,1124.66 -27.99,1101.51"/>
    </edge>
    <edge id="-E0_1" from="JC4" to="J1" priority="7" type="highway.primary_link" spreadType="center" shape="141.63,1183.83 141.26,1177.20 140.67,1170.53 139.30,1165.08 136.91,1162.32 133.30,1159.93 75.46,1143.69 58.53,1138.86 44.96,1120.82">
        <lane id="-E0_1_0" index="0" disallow="tram rail_urban rail rail_electric rail_fast ship container cable_car subway aircraft wheelchair scooter drone" speed="22.22" length="97.04" shape="140.31,1169.09 139.30,1165.08 136.91,1162.32 133.30,1159.93 75.46,1143.69 58.53,1138.86 54.17,1133.07">
            <param key="origId" value="116360196"/>
        </lane>
    </edge>
    <edge id="-E1" from="J2" to="J1" priority="-1">
        <lane id="-E1_0" index="0" speed="13.89" length="329.71" shape="372.42,1221.04 55.83,1128.98"/>
        <lane id="-E1_1" index="1" speed="13.89" length="329.71" shape="373.31,1217.97 56.72,1125.91"/>
    </edge>
    <edge id="-E1_1" from="J2" to="JC2" priority="-1" shape="389.19,1220.92 375.49,1223.76 361.95,1221.17 254.91,1193.81 245.58,1194.76 238.61,1199.28 232.19,1204.39">
        <lane id="-E1_1_0" index="0" speed="13.89" length="134.90" shape="371.27,1224.58 361.60,1222.73 254.79,1195.43 246.13,1196.31 241.01,1199.63"/>
    </edge>
    <edge id="-E2" from="JM0" to="J2" priority="-1">
        <lane id="-E2_0" index="0" speed="13.89" length="84.44" shape="466.79,1251.24 385.55,1228.20"/>
        <lane id="-E2_1" index="1" speed="13.89" length="84.44" shape="467.66,1248.17 386.42,1225.12"/>
        <lane id="-E2_2" index="2" speed="13.89" length="84.44" shape="468.53,1245.09 387.29,1222.05"/>
    </edge>
    <edge id="-E3" from="JM1" to="JM0" priority="-1" shape="845.98,1357.18 833.22,1353.48 479.66,1246.58">
        <lane id="-E3_0" index="0" speed="13.89" length="358.75" shape="830.24,1360.94 486.80,1257.10"/>
        <lane id="-E3_1" index="1" speed="13.89" length="358.75" shape="831.13,1357.86 487.73,1254.03"/>
        <lane id="-E3_2" index="2" speed="13.89" length="358.75" shape="832.02,1354.79 488.66,1250.97"/>
    </edge>
    <edge id="-E4" from="JM2" to="JM1" priority="-1">
        <lane id="-E4_0" index="0" speed="13.89" length="260.82" shape="1107.42,1439.86 857.40,1365.58"/>
        <lane id="-E4_1" index="1" speed="13.89" length="260.82" shape="1108.33,1436.79 858.31,1362.51"/>
    </edge>
    <edge id="-EB0" from="JM0" to="JB0" priority="-1">
        <lane id="-EB0_0" index="0" speed="13.89" length="195.14" shape="482.69,1233.08 547.15,1048.89"/>
    </edge>
    <edge id="-EB1" from="JB1" to="JM0" priority="-1" shape="404.53,1453.42 406.80,1447.06 479.66,1246.58">
        <lane id="-EB1_0" index="0" speed="13.89" length="205.99" shape="400.01,1451.81 402.28,1445.43 470.34,1258.18"/>
        <lane id="-EB1_1" index="1" speed="13.89" length="205.99" shape="403.02,1452.88 405.29,1446.52 473.34,1259.27"/>
    </edge>
    <edge id="-ES0" from="JM1" to="JS0" priority="-1">
        <lane id="-ES0_0" index="0" speed="13.89" length="214.87" shape="846.15,1343.22 922.52,1142.37"/>
        <lane id="-ES0_1" index="1" speed="13.89" length="214.87" shape="849.14,1344.36 925.51,1143.51"/>
    </edge>
    <edge id="-ES1" from="JS1" to="JM1" priority="-1">
        <lane id="-ES1_0" index="0" speed="13.89" length="200.84" shape="768.64,1557.86 833.84,1367.90"/>
        <lane id="-ES1_1" index="1" speed="13.89" length="200.84" shape="771.67,1558.90 836.87,1368.94"/>
        <lane id="-ES1_2" index="2" speed="13.89" length="200.84" shape="774.70,1559.94 839.90,1369.97"/>
    </edge>
    <edge id="-LA2" from="-JA1" to="-JA3" name="Tbilisi pr." priority="12" type="highway.primary" spreadType="center">
        <lane id="-LA2_0" index="0" disallow="tram rail_urban rail rail_electric rail_fast ship container cable_car subway aircraft wheelchair scooter drone" speed="27.78" length="111.98" shape="133.55,1247.66 67.17,1337.84">
            <param key="origId" value="49799950"/>
        </lane>
        <lane id="-LA2_1" index="1" disallow="tram rail_urban rail rail_electric rail_fast ship container cable_car subway aircraft wheelchair scooter drone" speed="27.78" length="111.98" shape="130.97,1245.76 64.59,1335.94">
            <param key="origId" value="49799950"/>
        </lane>
    </edge>
    <edge id="E0" from="J0" to="J1" priority="-1">
        <lane id="E0_0" index="0" speed="13.89" length="83.79" shape="-25.34,1092.28 55.18,1115.44"/>
        <lane id="E0_1" index="1" speed="13.89" length="83.79" shape="-26.22,1095.36 54.30,1118.51"/>
        <lane id="E0_2" index="2" speed="13.89" length="83.79" shape="-27.11,1098.43 53.42,1121.59"/>
    </edge>
    <edge id="E0_1" from="J1" to="JC0" priority="-1" shape="44.96,1120.82 61.13,1116.55 71.59,1116.17 93.11,1122.21 126.46,1131.70 139.28,1133.05 145.03,1133.25 153.45,1131.65 164.50,1125.92">
        <lane id="E0_1_0" index="0" speed="13.89" length="99.78" shape="58.93,1115.48 60.89,1114.96 71.78,1114.56 93.55,1120.67 126.76,1130.12 139.39,1131.45 144.91,1131.64 152.92,1130.12 155.89,1128.58"/>
    </edge>
    <edge id="E1" from="J1" to="J2" priority="-1">
        <lane id="E1_0" index="0" speed="13.89" length="329.71" shape="58.51,1119.76 375.11,1211.83"/>
        <lane id="E1_1" index="1" speed="13.89" length="329.71" shape="57.61,1122.83 374.21,1214.90"/>
    </edge>
    <edge id="E1_1" from="JC1" to="J2" priority="-1" shape="249.62,1152.13 251.80,1161.57 254.73,1166.90 261.98,1171.18 340.97,1197.03 366.41,1206.55 377.96,1210.64 385.71,1213.29">
        <lane id="E1_1_0" index="0" speed="13.89" length="132.45" shape="253.63,1161.58 255.92,1165.75 262.64,1169.71 341.50,1195.52 366.96,1205.05 376.14,1208.30"/>
    </edge>
    <edge id="E2" from="J2" to="JM0" priority="-1">
        <lane id="E2_0" index="0" speed="13.89" length="84.44" shape="389.91,1212.81 471.15,1235.85"/>
        <lane id="E2_1" index="1" speed="13.89" length="84.44" shape="389.04,1215.89 470.28,1238.93"/>
        <lane id="E2_2" index="2" speed="13.89" length="84.44" shape="388.17,1218.97 469.41,1242.01"/>
    </edge>
    <edge id="E3" from="JM0" to="JM1" priority="-1" shape="479.66,1246.58 833.22,1353.48 845.98,1357.18">
        <lane id="E3_0" index="0" speed="13.89" length="358.64" shape="491.43,1241.78 834.69,1345.57"/>
        <lane id="E3_1" index="1" speed="13.89" length="358.64" shape="490.51,1244.85 833.80,1348.64"/>
        <lane id="E3_2" index="2" speed="13.89" length="358.64" shape="489.58,1247.91 832.91,1351.71"/>
    </edge>
    <edge id="E4" from="JM1" to="JM2" priority="-1">
        <lane id="E4_0" index="0" speed="13.89" length="260.82" shape="860.13,1356.38 1110.16,1430.65"/>
        <lane id="E4_1" index="1" speed="13.89" length="260.82" shape="859.22,1359.45 1109.25,1433.72"/>
    </edge>
    <edge id="E5" from="JM2" to="J3" priority="-1" shape="1109.90,1442.10 1374.13,1519.51">
        <lane id="E5_0" index="0" speed="13.89" length="253.84" shape="1133.32,1437.29 1376.93,1508.66"/>
        <lane id="E5_1" index="1" speed="13.89" length="253.84" shape="1132.42,1440.36 1376.03,1511.73"/>
        <lane id="E5_2" index="2" speed="13.89" length="253.84" shape="1131.52,1443.43 1375.13,1514.80"/>
        <lane id="E5_3" index="3" speed="13.89" length="253.84" shape="1130.63,1446.50 1374.23,1517.87"/>
    </edge>
    <edge id="E6" from="J3" to="J4" priority="-1">
        <lane id="E6_0" index="0" speed="13.89" length="168.70" shape="1377.16,1508.81 1539.40,1555.04"/>
        <lane id="E6_1" index="1" speed="13.89" length="168.70" shape="1376.28,1511.89 1538.52,1558.12"/>
        <lane id="E6_2" index="2" speed="13.89" length="168.70" shape="1375.41,1514.96 1537.65,1561.19"/>
        <lane id="E6_3" index="3" speed="13.89" length="168.70" shape="1374.53,1518.04 1536.77,1564.27"/>
    </edge>
    <edge id="EB0" from="JB0" to="JM0" priority="-1">
        <lane id="EB0_0" index="0" speed="13.89" length="195.14" shape="550.17,1049.95 485.71,1234.13"/>
    </edge>
    <edge id="EB1" from="JM0" to="JB1" priority="-1" shape="479.66,1246.58 406.80,1447.06 404.53,1453.42">
        <lane id="EB1_0" index="0" speed="13.89" length="205.96" shape="479.36,1261.46 411.31,1448.70 409.05,1455.03"/>
        <lane id="EB1_1" index="1" speed="13.89" length="205.96" shape="476.35,1260.37 408.30,1447.61 406.04,1453.96"/>
    </edge>
    <edge id="EC0" from="JC0" to="JC1" priority="12" type="highway.primary" spreadType="center" shape="164.50,1125.92 175.06,1111.46 180.57,1106.63 188.63,1102.47 195.18,1101.09 203.18,1100.57 212.27,1101.32 220.18,1103.18 227.97,1107.05 234.61,1112.14 238.91,1116.31 242.53,1121.11 244.82,1126.41 247.34,1136.24 249.62,1152.13">
        <lane id="EC0_0" index="0" disallow="tram rail_urban rail rail_electric rail_fast ship container cable_car subway aircraft wheelchair scooter drone" speed="16.67" length="117.79" shape="166.01,1121.14 173.87,1110.37 179.66,1105.30 188.09,1100.95 194.96,1099.50 203.19,1098.97 212.52,1099.74 220.73,1101.66 228.82,1105.69 235.66,1110.93 240.11,1115.25 243.92,1120.30 246.34,1125.89 248.91,1135.93 250.53,1147.19">
            <param key="origId" value="738510269"/>
        </lane>
        <lane id="EC0_1" index="1" disallow="tram rail_urban rail rail_electric rail_fast ship container cable_car subway aircraft wheelchair scooter drone" speed="16.67" length="117.79" shape="168.59,1123.03 176.25,1112.55 181.48,1107.96 189.17,1103.99 195.40,1102.68 203.17,1102.17 212.02,1102.90 219.63,1104.70 227.12,1108.41 233.56,1113.35 237.71,1117.37 241.14,1121.92 243.30,1126.93 245.77,1136.55 247.36,1147.65">
            <param key="origId" value="738510269"/>
        </lane>
    </edge>
    <edge id="EC1" from="JC1" to="JC2" priority="12" type="highway.primary" spreadType="center">
        <lane id="EC1_0" index="0" disallow="tram rail_urban rail rail_electric rail_fast ship container cable_car subway aircraft wheelchair scooter drone" speed="27.78" length="36.94" shape="248.22,1161.39 236.53,1196.43">
            <param key="origId" value="49799945"/>
        </lane>
        <lane id="EC1_1" index="1" disallow="tram rail_urban rail rail_electric rail_fast ship container cable_car subway aircraft wheelchair scooter drone" speed="27.78" length="36.94" shape="245.18,1160.38 233.49,1195.42">