<?xml version="1.0" encoding="UTF-8"?>

<!-- generated on 2024-08-18 16:48:35 by Eclipse SUMO netedit Version v1_20_0+1561-e9de7d68da5
-->

<additional xmlns:xsi="http://www.w3.org/2001/XMLSchema-instance" xsi:noNamespaceSchemaLocation="http://sumo.dlr.de/xsd/additional_file.xsd">
    <!-- Wires -->
    <tractionSubstation id="tr_0" pos="1275.74,428.24" voltage="600.00" currentLimit="400.00"/>
</additional>
