<?xml version="1.0" encoding="UTF-8"?>

<!-- generated on 2024-08-18 00:26:47 by Eclipse SUMO netedit Version v1_20_0+1561-e9de7d68da5
-->

<routes xmlns:xsi="http://www.w3.org/2001/XMLSchema-instance" xsi:noNamespaceSchemaLocation="http://sumo.dlr.de/xsd/routes_file.xsd">
    <!-- Define vehicle types -->
    <vType id="car" vClass="passenger" color="1,0,0" />
    <vType id="truck" vClass="truck" color="0,1,0" />

    <!-- Define routes -->
    <route id="route_forward" edges="E0 E1 E2 E3 E4 E7 E8 E9"/>
    <route id="route_forward_a" edges="E0 E1 E2 -EB0"/>
    <route id="route_forward_b" edges="E0 E0_1 EC0 E1_1 E2 E3 E4 E7 E8 E9"/>
    <route id="route_forward_c" edges="E0 E0_1 EC0 E1_1 E2 -EB0"/>
    <route id="route_forward_d" edges="E0 E0_1 EC0 EC1 -LA0 -LA1 -LA2"/>
    <route id="route_forward_e" edges="E0 E0_1 EC0 EC1 EC2 EC2_1 -LA2"/>
    <route id="route_forward_f" edges="E0 E0_1 EC0 EC1 EC2 EC3 -E0_1 -E0"/> 
    <route id="route_forward_h" edges="ER0 ER1 ER2 ER3 ER4 ER5 ER6 ER7 E6 E7 E8 E9"/> 
    <route id="route_forward_i" edges="ER0 ER1 ER2 ER3 ER4 ER5 ER6 ER7 E6 -E4 -E3 -E2 -E1 -E0"/>
    <route id="route_forward_j" edges="ER0 ER1 ER2 ER3 ER4 ER5 ER6 ER7 E6 -E4 -E3 EB1"/>
    <route id="route_forward_k" edges="ER0 ER1 ER2 ER3 ER4 ER5 ER6 ER7 E6 -E4 -E3 -E2 -E1_1 -E1_2 -LA0 -LA1 -LA2"/>
    <route id="route_forward_l" edges="ER0 ER1 ER2 ER3 ER4 ER5 ER6 ER7 E6 -E4 -E3 -E2 -E1_1 -E1_2 EC2 EC2_1 -LA2"/>
    <route id="route_forward_m" edges="ER0 ER1 ER2 ER3 ER4 ER5 ER6 ER7 E6 -E4 -E3 -E2 -E1_1 -E1_2 EC2 EC3 -E0_1 -E0"/>
    <route id="route_forward_n" edges="ER0 ER1 ER2 ER3 ER4 ER5 ER6 ER7 E6 -E4 -E3 -E2 -E1_1 -E1_2 EC2 EC3 EC4 EC0 E1_1 E2 -EB0"/>
    <route id="route_forward_o" edges="ER0 ER1 ER2 ER3 ER4 ER5 ER6 ER7 E6 -E4 -E3 -E2 -E1_1 -E1_2 EC2 EC3 EC4 EC0 E1_1 E2 E3 E4 E7 E8 E9"/>
    <route id="route_forward_p" edges="LA2 -E0_1 -E0"/>
    <route id="route_forward_q" edges="LA2 EC4 EC0 E1_1 E2 -EB0"/>
    <route id="route_forward_r" edges="LA2 EC4 EC0 E1_1 E2 E3 E4 E7 E8 E9"/>
    <route id="route_forward_s" edges="LA2 EC4 EC0 EC1 -LA0 -LA1 -LA2"/>
    <route id="route_forward_t" edges="LA2 EC4 EC0 EC1 EC2 EC2_1 -LA2"/>
    <route id="route_forward_v" edges="LA2 EC4 EC0 EC1 EC2 EC3 -E0_1 -E0"/>
    <route id="route_forward_w" edges="-EB1 -EB0"/>
    <route id="route_forward_x" edges="EB0 EB1"/>
    <route id="route_forward_y" edges="-EB1 -E2 -E1_1 -E1_2 -LA0 -LA1 -LA2"/>
    <route id="route_forward_z" edges="-EB1 -E2 -E1_1 -E1_2 EC2 EC2_1 -LA2"/>
    <route id="route_forward_1" edges="-EB1 -E2 -E1_1 -E1_2 EC2 EC3 -E0_1 -E0"/>
    <route id="route_forward_2" edges="-EB1 -E2 -E1_1 -E1_2 EC2 EC3 EC4 EC0 E1_1 E2 -EB0"/>
    <route id="route_forward_3" edges="-EB1 -E2 -E1_1 -E1_2 EC2 EC3 EC4 EC0 E1_1 E2 E3 E4 E7 E8 E9"/>
    <route id="route_forward_4" edges="-EB1 E3 E4 E7 E8 E9"/>
    <route id="route_forward_5" edges="EB0 -E2 -E1_1 -E1_2 -LA0 -LA1 -LA2"/>
    <route id="route_forward_6" edges="EB0 -E2 -E1_1 -E1_2 EC2 EC2_1 -LA2"/>
    <route id="route_forward_7" edges="EB0 -E2 -E1_1 -E1_2 EC2 EC3 -E0_1 -E0"/>
    <route id="route_forward_8" edges="EB0 -E2 -E1_1 -E1_2 EC2 EC3 EC4 EC0 E1_1 E2 -EB0"/>
    <route id="route_forward_9" edges="EB0 -E2 -E1_1 -E1_2 EC2 EC3 EC4 EC0 E1_1 E2 E3 E4 E7 E8 E9"/>
    <route id="route_forward_10" edges="EB0 E3 E4 E7 E8 E9"/>
    <route id="route_forward_11" edges="ES0 E4 E7 E8 E9"/>
    <route id="route_forward_12" edges="-ES1 -E3 -E2 -E1 -E0"/>
    <route id="route_forward_13" edges="-ES1 -E3 EB1"/>
    <route id="route_forward_14" edges="-ES1 -E3 -E2 -E1_1 -E1_2 -LA0 -LA1 -LA2"/>
    <route id="route_forward_15" edges="-ES1 -E3 -E2 -E1_1 -E1_2 EC2 EC2_1 -LA2"/>
    <route id="route_forward_16" edges="-ES1 -E3 -E2 -E1_1 -E1_2 EC2 EC3 -E0_1 -E0"/>
    <route id="route_forward_17" edges="-ES1 -E3 -E2 -E1_1 -E1_2 EC2 EC3 EC4 EC0 E1_1 E2 -EB0"/>
    <route id="route_forward_18" edges="-ES1 -E3 -E2 -E1_1 -E1_2 EC2 EC3 EC4 EC0 E1_1 E2 E3 E4 E7 E8 E9"/>
    <route id="route_forward_19" edges="-ES1 E4 E7 E8 E9"/>
    <route id="route_forward_20" edges="E0 E1 E2 E3 ES1"/>
    <route id="route_forward_21" edges="E0 E0_1 EC0 E1_1 E2 E3 ES1"/>
    <route id="route_forward_22" edges="LA2 EC4 EC0 E1_1 E2 E3 ES1"/>
    <route id="route_forward_23" edges="-EB1 -E2 -E1_1 -E1_2 EC2 EC3 EC4 EC0 E1_1 E2 E3 ES1"/>
    <route id="route_forward_24" edges="-EB1 E3 ES1"/>
    <route id="route_forward_25" edges="EB0 -E2 -E1_1 -E1_2 EC2 EC3 EC4 EC0 E1_1 E2 E3 ES1"/>
    <route id="route_forward_26" edges="EB0 E3 ES1"/>
    <route id="route_forward_27" edges="E0 E1 E2 E3 -ES0"/>
    <route id="route_forward_28" edges="E0 E0_1 EC0 E1_1 E2 E3 -ES0"/>
    <route id="route_forward_29" edges="LA2 EC4 EC0 E1_1 E2 E3 -ES0"/>
    <route id="route_forward_30" edges="-EB1 -E2 -E1_1 -E1_2 EC2 EC3 EC4 EC0 E1_1 E2 E3 -ES0"/>
    <route id="route_forward_31" edges="-EB1 E3 -ES0"/>
    <route id="route_forward_32" edges="EB0 -E2 -E1_1 -E1_2 EC2 EC3 EC4 EC0 E1_1 E2 E3 -ES0"/>
    <route id="route_forward_33" edges="EB0 E3 -ES0"/>
    <route id="route_forward_34" edges="ER0 ER1 ER2 ER3 ER4 ER5 ER6 ER7 E6 -E4 ES1"/>
    <route id="route_forward_35" edges="ER0 ER1 ER2 ER3 ER4 ER5 ER6 ER7 E6 -E4 ES1"/>
    <route id="route_forward_36" edges="ER0 ER1 ER2 ER3 ER4 ER5 ER6 ER7 E6 -E4 ES1"/>
    <route id="route_forward_37" edges="ER0 ER1 ER2 ER3 ER4 ER5 ER6 ER7 E6 -E4 ES1"/>
    <route id="route_forward_38" edges="ER0 ER1 ER2 ER3 ER4 ER5 ER6 ER7 E6 -E4 ES1"/>
    <route id="route_forward_39" edges="ER0 ER1 ER2 ER3 ER4 ER5 ER6 ER7 E6 -E4 ES1"/>
    <route id="route_forward_40" edges="ER0 ER1 ER2 ER3 ER4 ER5 ER6 ER7 E6 -E4 ES1"/>
    <route id="route_forward_41" edges="ER0 ER1 ER2 ER3 ER4 ER5 ER6 ER7 E6 -E4 -ES0"/>
    <route id="route_forward_42" edges="ER0 ER1 ER2 ER3 ER4 ER5 ER6 ER7 E6 -E4 -ES0"/>
    <route id="route_forward_43" edges="ER0 ER1 ER2 ER3 ER4 ER5 ER6 ER7 E6 -E4 -ES0"/>
    <route id="route_forward_44" edges="ER0 ER1 ER2 ER3 ER4 ER5 ER6 ER7 E6 -E4 -ES0"/>
    <route id="route_forward_45" edges="ER0 ER1 ER2 ER3 ER4 ER5 ER6 ER7 E6 -E4 -ES0"/>
    <route id="route_forward_46" edges="ER0 ER1 ER2 ER3 ER4 ER5 ER6 ER7 E6 -E4 -ES0"/>
    <route id="route_forward_47" edges="ER0 ER1 ER2 ER3 ER4 ER5 ER6 ER7 E6 -E4 -ES0"/>

    <!-- Define vehicle flows -->
    <flow id="low_flow_forward" route="route_forward" begin="0.00" end="300.00" number="100"/>
    <flow id="low_flow_forward_a" route="route_forward_a" begin="0.00" end="300.00" number="100"/>
    <flow id="low_flow_forward_b" route="route_forward" begin="0.00" end="300.00" number="100"/>
    <flow id="low_flow_forward_c" route="route_forward_c" begin="0.00" end="300.00" number="100"/>
    <flow id="low_flow_forward_d" route="route_forward_d" begin="0.00" end="300.00" number="100"/>
    <flow id="low_flow_forward_e" route="route_forward_e" begin="0.00" end="300.00" number="100"/>
    <flow id="low_flow_forward_f" route="route_forward_f" begin="0.00" end="300.00" number="100"/>
    <flow id="low_flow_forward_h" route="route_forward_h" begin="0.00" end="300.00" number="100"/>
    <flow id="low_flow_forward_i" route="route_forward_i" begin="0.00" end="300.00" number="100"/>
    <flow id="low_flow_forward_j" route="route_forward_j" begin="0.00" end="300.00" number="100"/>
    <flow id="low_flow_forward_k" route="route_forward_k" begin="0.00" end="300.00" number="100"/>
    <flow id="low_flow_forward_l" route="route_forward_l" begin="0.00" end="300.00" number="100"/>
    <flow id="low_flow_forward_m" route="route_forward_m" begin="0.00" end="300.00" number="100"/>
    <flow id="low_flow_forward_n" route="route_forward_n" begin="0.00" end="300.00" number="100"/>
    <flow id="low_flow_forward_p" route="route_forward_p" begin="0.00" end="300.00" number="100"/>
    <flow id="low_flow_forward_q" route="route_forward_q" begin="0.00" end="300.00" number="100"/>
    <flow id="low_flow_forward_r" route="route_forward_r" begin="0.00" end="300.00" number="100"/>
    <flow id="low_flow_forward_s" route="route_forward_s" begin="0.00" end="300.00" number="100"/>
    <flow id="low_flow_forward_t" route="route_forward_t" begin="0.00" end="300.00" number="100"/>
    <flow id="low_flow_forward_v" route="route_forward_v" begin="0.00" end="300.00" number="100"/>
    <flow id="low_flow_forward_w" route="route_forward_w" begin="0.00" end="300.00" number="100"/>
    <flow id="low_flow_forward_x" route="route_forward_x" begin="0.00" end="300.00" number="100"/>
    <flow id="low_flow_forward_y" route="route_forward_y" begin="0.00" end="300.00" number="100"/>
    <flow id="low_flow_forward_z" route="route_forward_z" begin="0.00" end="300.00" number="100"/>
    <flow id="low_flow_forward_1" route="route_forward_1" begin="0.00" end="300.00" number="100"/>
    <flow id="low_flow_forward_2" route="route_forward_2" begin="0.00" end="300.00" number="100"/>
    <flow id="low_flow_forward_3" route="route_forward_3" begin="0.00" end="300.00" number="100"/>
    <flow id="low_flow_forward_4" route="route_forward_4" begin="0.00" end="300.00" number="100"/>
    <flow id="low_flow_forward_5" route="route_forward_5" begin="0.00" end="300.00" number="100"/>
    <flow id="low_flow_forward_6" route="route_forward_6" begin="0.00" end="300.00" number="100"/>
    <flow id="low_flow_forward_7" route="route_forward_7" begin="0.00" end="300.00" number="100"/>
    <flow id="low_flow_forward_8" route="route_forward_8" begin="0.00" end="300.00" number="100"/>
    <flow id="low_flow_forward_9" route="route_forward_9" begin="0.00" end="300.00" number="100"/>
    <flow id="low_flow_forward_10" route="route_forward_10" begin="0.00" end="300.00" number="100"/>
    <flow id="low_flow_forward_11" route="route_forward_11" begin="0.00" end="300.00" number="100"/>
    <flow id="low_flow_forward_12" route="route_forward_12" begin="0.00" end="300.00" number="100"/>
    <flow id="low_flow_forward_13" route="route_forward_13" begin="0.00" end="300.00" number="100"/>
    <flow id="low_flow_forward_14" route="route_forward_14" begin="0.00" end="300.00" number="100"/>
    <flow id="low_flow_forward_15" route="route_forward_15" begin="0.00" end="300.00" number="100"/>
    <flow id="low_flow_forward_16" route="route_forward_16" begin="0.00" end="300.00" number="100"/>
    <flow id="low_flow_forward_17" route="route_forward_17" begin="0.00" end="300.00" number="100"/>
    <flow id="low_flow_forward_18" route="route_forward_18" begin="0.00" end="300.00" number="100"/>
    <flow id="low_flow_forward_19" route="route_forward_19" begin="0.00" end="300.00" number="100"/>
    <flow id="low_flow_forward_20" route="route_forward_20" begin="0.00" end="300.00" number="100"/>
    <flow id="low_flow_forward_21" route="route_forward_21" begin="0.00" end="300.00" number="100"/>
    <flow id="low_flow_forward_22" route="route_forward_22" begin="0.00" end="300.00" number="100"/>
    <flow id="low_flow_forward_23" route="route_forward_23" begin="0.00" end="300.00" number="100"/>
    <flow id="low_flow_forward_24" route="route_forward_24" begin="0.00" end="300.00" number="100"/>
    <flow id="low_flow_forward_25" route="route_forward_25" begin="0.00" end="300.00" number="100"/>
    <flow id="low_flow_forward_26" route="route_forward_26" begin="0.00" end="300.00" number="100"/>
    <flow id="low_flow_forward_27" route="route_forward_27" begin="0.00" end="300.00" number="100"/>
    <flow id="low_flow_forward_28" route="route_forward_28" begin="0.00" end="300.00" number="100"/>
    <flow id="low_flow_forward_29" route="route_forward_29" begin="0.00" end="300.00" number="100"/>
    <flow id="low_flow_forward_30" route="route_forward_30" begin="0.00" end="300.00" number="100"/>
    <flow id="low_flow_forward_31" route="route_forward_31" begin="0.00" end="300.00" number="100"/>
    <flow id="low_flow_forward_32" route="route_forward_32" begin="0.00" end="300.00" number="100"/>
    <flow id="low_flow_forward_33" route="route_forward_33" begin="0.00" end="300.00" number="100"/>
    <flow id="low_flow_forward_34" route="route_forward_34" begin="0.00" end="300.00" number="100"/>
    <flow id="low_flow_forward_35" route="route_forward_34" begin="0.00" end="300.00" number="100"/>
    <flow id="low_flow_forward_36" route="route_forward_34" begin="0.00" end="300.00" number="100"/>
    <flow id="low_flow_forward_37" route="route_forward_34" begin="0.00" end="300.00" number="100"/>
    <flow id="low_flow_forward_38" route="route_forward_34" begin="0.00" end="300.00" number="100"/>
    <flow id="low_flow_forward_39" route="route_forward_34" begin="0.00" end="300.00" number="100"/>
    <flow id="low_flow_forward_40" route="route_forward_34" begin="0.00" end="300.00" number="100"/>
    <flow id="low_flow_forward_41" route="route_forward_34" begin="0.00" end="300.00" number="100"/>
    <flow id="low_flow_forward_42" route="route_forward_34" begin="0.00" end="300.00" number="100"/>
    <flow id="low_flow_forward_43" route="route_forward_34" begin="0.00" end="300.00" number="100"/>
    <flow id="low_flow_forward_44" route="route_forward_34" begin="0.00" end="300.00" number="100"/>
    <flow id="low_flow_forward_45" route="route_forward_34" begin="0.00" end="300.00" number="100"/>
    <flow id="low_flow_forward_46" route="route_forward_34" begin="0.00" end="300.00" number="100"/>
    <flow id="low_flow_forward_47" route="route_forward_34" begin="0.00" end="300.00" number="100"/>

</routes>
