<?xml version="1.0" encoding="UTF-8"?>

<!-- generated on 2025-01-15 22:48:18 by Eclipse SUMO netedit Version 1.20.0
<configuration xmlns:xsi="http://www.w3.org/2001/XMLSchema-instance" xsi:noNamespaceSchemaLocation="http://sumo.dlr.de/xsd/neteditConfiguration.xsd">

    <input>
        <sumo-net-file value="C:\Users\zisgandarli\Sumo\A\A.net.xml"/>
    </input>

    <output>
        <output-file value="C:\Users\zisgandarli\Sumo\A\A.net.xml"/>
    </output>

    <processing>
        <geometry.min-radius.fix.railways value="false"/>
        <geometry.max-grade.fix value="false"/>
        <offset.disable-normalization value="true"/>
        <lefthand value="0"/>
    </processing>

    <junctions>
        <no-turnarounds value="true"/>
        <junctions.corner-detail value="5"/>
        <junctions.limit-turn-speed value="5.50"/>
        <rectangular-lane-cut value="0"/>
    </junctions>

    <pedestrian>
        <walkingareas value="0"/>
    </pedestrian>

</configuration>
-->

<net version="1.20" junctionCornerDetail="5" limitTurnSpeed="5.50" xmlns:xsi="http://www.w3.org/2001/XMLSchema-instance" xsi:noNamespaceSchemaLocation="http://sumo.dlr.de/xsd/net_file.xsd">

    <location netOffset="0.00,0.00" convBoundary="-17.80,-77.86,-17.54,79.26" origBoundary="-10000000000.00,-10000000000.00,10000000000.00,10000000000.00" projParameter="!"/>

    <edge id=":J1_0" function="internal">
        <lane id=":J1_0_0" index="0" speed="13.89" length="0.30" shape="-15.94,4.11 -15.94,4.42"/>
    </edge>
    <edge id=":J1_1" function="internal">
        <lane id=":J1_1_0" index="0" speed="13.89" length="0.29" shape="-19.14,4.40 -19.14,4.11"/>
    </edge>

    <edge id="-E0" from="J1" to="J0" priority="-1">
        <lane id="-E0_0" index="0" speed="13.89" length="74.85" shape="-15.94,4.42 -16.20,79.27"/>
    </edge>
    <edge id="-E1" from="J2" to="J1" priority="-1">
        <lane id="-E1_0" index="0" speed="13.89" length="81.97" shape="-15.94,-77.86 -15.94,4.11"/>
    </edge>
    <edge id="E0" from="J0" to="J1" priority="-1">
        <lane id="E0_0" index="0" speed="13.89" length="74.85" shape="-19.40,79.25 -19.14,4.40"/>
    </edge>
    <edge id="E1" from="J1" to="J2" priority="-1">
        <lane id="E1_0" index="0" speed="13.89" length="81.97" shape="-19.14,4.11 -19.14,-77.86"/>
    </edge>

    <tlLogic id="J1" type="static" programID="0" offset="0">
        <phase duration="82" state="GG"/>
        <phase duration="3"  state="yy"/>
        <phase duration="5"  state="rr"/>
    </tlLogic>

    <junction id="J0" type="dead_end" x="-17.80" y="79.26" incLanes="-E0_0" intLanes="" shape="-17.80,79.26 -14.60,79.27 -17.80,79.26"/>
    <junction id="J1" type="traffic_light" x="-17.54" y="4.26" incLanes="-E1_0 E0_0" intLanes=":J1_0_0 :J1_1_0" shape="-14.34,4.11 -20.74,4.11 -20.74,4.40 -14.34,4.42">
        <request index="0" response="00" foes="00" cont="0"/>
        <request index="1" response="00" foes="00" cont="0"/>
    </junction>
    <junction id="J2" type="dead_end" x="-17.54" y="-77.86" incLanes="E1_0" intLanes="" shape="-17.54,-77.86 -20.74,-77.86 -17.54,-77.86"/>

    <connection from="-E1" to="-E0" fromLane="0" toLane="0" via=":J1_0_0" tl="J1" linkIndex="0" dir="s" state="O"/>
    <connection from="E0" to="E1" fromLane="0" toLane="0" via=":J1_1_0" tl="J1" linkIndex="1" dir="s" state="O"/>

    <connection from=":J1_0" to="-E0" fromLane="0" toLane="0" dir="s" state="M"/>
    <connection from=":J1_1" to="E1" fromLane="0" toLane="0" dir="s" state="M"/>

</net>
