<?xml version="1.0" encoding="UTF-8"?>

<!-- generated on 2025-01-11 12:43:31 by Eclipse SUMO sumo Version v1_20_0+2047-af81d0c876d
-->

<sumoConfiguration xmlns:xsi="http://www.w3.org/2001/XMLSchema-instance" xsi:noNamespaceSchemaLocation="http://sumo.dlr.de/xsd/sumoConfiguration.xsd">

    <input>
        <net-file value="C.net.xml"/>
        <route-files value="C.rou.xml"/>
        <additional-files value="C.add.xml"/>
    </input>

</sumoConfiguration>
