<?xml version="1.0" encoding="UTF-8"?>

<!-- generated on 2025-01-11 12:22:11 by Eclipse SUMO netedit Version v1_20_0+2047-af81d0c876d
<neteditConfiguration xmlns:xsi="http://www.w3.org/2001/XMLSchema-instance" xsi:noNamespaceSchemaLocation="http://sumo.dlr.de/xsd/neteditConfiguration.xsd">

    <input>
        <sumo-net-file value="/Users/rufatismayilov/Desktop/B/B.net.xml"/>
    </input>

    <output>
        <output-file value="/Users/rufatismayilov/Desktop/B/B.net.xml"/>
    </output>

    <processing>
        <geometry.min-radius.fix.railways value="false"/>
        <geometry.max-grade.fix value="false"/>
        <offset.disable-normalization value="true"/>
        <lefthand value="0"/>
    </processing>

    <junctions>
        <no-turnarounds value="true"/>
        <junctions.corner-detail value="5"/>
        <junctions.limit-turn-speed value="5.50"/>
        <rectangular-lane-cut value="0"/>
    </junctions>

    <pedestrian>
        <walkingareas value="0"/>
    </pedestrian>

</neteditConfiguration>
-->

<net version="1.20" junctionCornerDetail="5" limitTurnSpeed="5.50" xmlns:xsi="http://www.w3.org/2001/XMLSchema-instance" xsi:noNamespaceSchemaLocation="http://sumo.dlr.de/xsd/net_file.xsd">

    <location netOffset="0.00,0.00" convBoundary="-55.69,-42.92,42.77,46.66" origBoundary="-10000000000.00,-10000000000.00,10000000000.00,10000000000.00" projParameter="!"/>

    <edge id=":J5_0" function="internal">
        <lane id=":J5_0_0" index="0" speed="6.58" length="9.15" shape="-0.30,4.76 -2.77,5.14 -4.54,6.21 -5.62,7.99 -5.98,10.46"/>
    </edge>
    <edge id=":J5_1" function="internal">
        <lane id=":J5_1_0" index="0" speed="13.89" length="14.46" shape="-0.30,4.76 -14.76,4.83"/>
    </edge>
    <edge id=":J5_2" function="internal">
        <lane id=":J5_2_0" index="0" speed="7.99" length="4.11" shape="-0.30,4.76 -4.17,4.25 -4.34,4.14"/>
    </edge>
    <edge id=":J5_12" function="internal">
        <lane id=":J5_12_0" index="0" speed="7.99" length="10.12" shape="-4.34,4.14 -6.93,2.61 -8.59,-0.14 -9.14,-4.00"/>
    </edge>
    <edge id=":J5_3" function="internal">
        <lane id=":J5_3_0" index="0" speed="6.49" length="9.03" shape="-5.94,-4.00 -5.59,-1.55 -4.54,0.20 -2.78,1.24 -0.33,1.56"/>
    </edge>
    <edge id=":J5_4" function="internal">
        <lane id=":J5_4_0" index="0" speed="13.89" length="14.46" shape="-5.94,-4.00 -5.98,10.46"/>
    </edge>
    <edge id=":J5_5" function="internal">
        <lane id=":J5_5_0" index="0" speed="8.01" length="4.10" shape="-5.94,-4.00 -6.49,-0.14 -6.59,0.03"/>
    </edge>
    <edge id=":J5_13" function="internal">
        <lane id=":J5_13_0" index="0" speed="8.01" length="10.13" shape="-6.59,0.03 -8.14,2.62 -10.90,4.28 -14.76,4.83"/>
    </edge>
    <edge id=":J5_6" function="internal">
        <lane id=":J5_6_0" index="0" speed="6.52" length="9.07" shape="-14.76,1.63 -12.30,1.28 -10.54,0.22 -9.49,-1.54 -9.14,-4.00"/>
    </edge>
    <edge id=":J5_7" function="internal">
        <lane id=":J5_7_0" index="0" speed="13.89" length="14.43" shape="-14.76,1.63 -0.33,1.56"/>
    </edge>
    <edge id=":J5_8" function="internal">
        <lane id=":J5_8_0" index="0" speed="7.99" length="4.04" shape="-14.76,1.63 -10.90,2.18 -10.78,2.25"/>
    </edge>
    <edge id=":J5_14" function="internal">
        <lane id=":J5_14_0" index="0" speed="7.99" length="10.18" shape="-10.78,2.25 -8.15,3.84 -6.51,6.60 -5.98,10.46"/>
    </edge>
    <edge id=":J5_9" function="internal">
        <lane id=":J5_9_0" index="0" speed="6.49" length="9.03" shape="-9.18,10.44 -9.52,7.99 -10.56,6.23 -12.31,5.18 -14.76,4.83"/>
    </edge>
    <edge id=":J5_10" function="internal">
        <lane id=":J5_10_0" index="0" speed="13.89" length="14.44" shape="-9.18,10.44 -9.14,-4.00"/>
    </edge>
    <edge id=":J5_11" function="internal">
        <lane id=":J5_11_0" index="0" speed="8.06" length="4.05" shape="-9.18,10.44 -8.61,6.59 -8.53,6.45"/>
    </edge>
    <edge id=":J5_15" function="internal">
        <lane id=":J5_15_0" index="0" speed="8.06" length="10.20" shape="-8.53,6.45 -6.94,3.82 -4.18,2.15 -0.33,1.56"/>
    </edge>

    <edge id="-E1" from="J5" to="J4" priority="-1">
        <lane id="-E1_0" index="0" speed="13.89" length="40.93" shape="-14.76,4.83 -55.69,4.83"/>
    </edge>
    <edge id="-E2" from="J6" to="J5" priority="-1">
        <lane id="-E2_0" index="0" speed="13.89" length="38.92" shape="-5.94,-42.92 -5.94,-4.00"/>
    </edge>
    <edge id="-E3" from="J7" to="J5" priority="-1">
        <lane id="-E3_0" index="0" speed="13.89" length="43.08" shape="42.78,4.37 -0.30,4.76"/>
    </edge>
    <edge id="-E4" from="J8" to="J5" priority="-1">
        <lane id="-E4_0" index="0" speed="13.89" length="36.21" shape="-9.40,46.65 -9.18,10.44"/>
    </edge>
    <edge id="E1" from="J4" to="J5" priority="-1">
        <lane id="E1_0" index="0" speed="13.89" length="40.93" shape="-55.69,1.63 -14.76,1.63"/>
    </edge>
    <edge id="E2" from="J5" to="J6" priority="-1">
        <lane id="E2_0" index="0" speed="13.89" length="38.92" shape="-9.14,-4.00 -9.14,-42.92"/>
    </edge>
    <edge id="E3" from="J5" to="J7" priority="-1">
        <lane id="E3_0" index="0" speed="13.89" length="43.08" shape="-0.33,1.56 42.76,1.17"/>
    </edge>
    <edge id="E4" from="J5" to="J8" priority="-1">
        <lane id="E4_0" index="0" speed="13.89" length="36.21" shape="-5.98,10.46 -6.20,46.67"/>
    </edge>

    <tlLogic id="J5" type="static" programID="0" offset="0">
        <phase duration="42" state="rrrGGgrrrGGg"/>
        <phase duration="3"  state="yyyyyyyyyyyy"/>
        <phase duration="42" state="GGgrrrGGgrrr"/>
    </tlLogic>

    <junction id="J4" type="dead_end" x="-55.69" y="3.23" incLanes="-E1_0" intLanes="" shape="-55.69,3.23 -55.69,6.43 -55.69,3.23"/>
    <junction id="J5" type="traffic_light" x="-7.54" y="3.23" incLanes="-E3_0 -E2_0 E1_0 -E4_0" intLanes=":J5_0_0 :J5_1_0 :J5_12_0 :J5_3_0 :J5_4_0 :J5_13_0 :J5_6_0 :J5_7_0 :J5_14_0 :J5_9_0 :J5_10_0 :J5_15_0" shape="-0.28,6.36 -0.34,-0.04 -2.56,-0.46 -3.34,-1.01 -3.90,-1.78 -4.23,-2.78 -4.34,-4.00 -10.74,-4.00 -11.19,-1.76 -11.74,-0.98 -12.53,-0.42 -13.53,-0.08 -14.76,0.03 -14.76,6.43 -12.54,6.87 -11.77,7.43 -11.21,8.21 -10.89,9.21 -10.78,10.43 -4.38,10.47 -3.92,8.20 -3.35,7.41 -2.55,6.84 -1.53,6.49">
        <request index="0"  response="000000010000" foes="000100010000" cont="0"/>
        <request index="1"  response="111000110000" foes="111100110000" cont="0"/>
        <request index="2"  response="110111110000" foes="110111110000" cont="1"/>
        <request index="3"  response="000000000000" foes="100010000000" cont="0"/>
        <request index="4"  response="000100000100" foes="100110000111" cont="0"/>
        <request index="5"  response="111100000100" foes="111110000110" cont="1"/>
        <request index="6"  response="010000000000" foes="010000000100" cont="0"/>
        <request index="7"  response="110000111000" foes="110000111100" cont="0"/>
        <request index="8"  response="110000110011" foes="110000110111" cont="1"/>
        <request index="9"  response="000000000000" foes="000000100010" cont="0"/>
        <request index="10" response="000100000100" foes="000111100110" cont="0"/>
        <request index="11" response="000100011100" foes="000110111110" cont="1"/>
    </junction>
    <junction id="J6" type="dead_end" x="-7.54" y="-42.92" incLanes="E2_0" intLanes="" shape="-7.54,-42.92 -10.74,-42.92 -7.54,-42.92"/>
    <junction id="J7" type="dead_end" x="42.77" y="2.77" incLanes="E3_0" intLanes="" shape="42.77,2.77 42.74,-0.43 42.77,2.77"/>
    <junction id="J8" type="dead_end" x="-7.80" y="46.66" incLanes="E4_0" intLanes="" shape="-7.80,46.66 -4.60,46.68 -7.80,46.66"/>

    <junction id=":J5_12_0" type="internal" x="-4.34" y="4.14" incLanes=":J5_2_0 E1_0" intLanes=":J5_4_0 :J5_5_0 :J5_6_0 :J5_7_0 :J5_10_0 :J5_11_0"/>
    <junction id=":J5_13_0" type="internal" x="-6.59" y="0.03" incLanes=":J5_5_0 -E4_0" intLanes=":J5_1_0 :J5_2_0 :J5_7_0 :J5_8_0 :J5_9_0 :J5_10_0"/>
    <junction id=":J5_14_0" type="internal" x="-10.78" y="2.25" incLanes=":J5_8_0 -E3_0" intLanes=":J5_0_0 :J5_1_0 :J5_4_0 :J5_5_0 :J5_10_0 :J5_11_0"/>
    <junction id=":J5_15_0" type="internal" x="-8.53" y="6.45" incLanes=":J5_11_0 -E2_0" intLanes=":J5_1_0 :J5_2_0 :J5_3_0 :J5_4_0 :J5_7_0 :J5_8_0"/>

    <connection from="-E2" to="E3" fromLane="0" toLane="0" via=":J5_3_0" tl="J5" linkIndex="3" dir="r" state="O"/>
    <connection from="-E2" to="E4" fromLane="0" toLane="0" via=":J5_4_0" tl="J5" linkIndex="4" dir="s" state="O"/>
    <connection from="-E2" to="-E1" fromLane="0" toLane="0" via=":J5_5_0" tl="J5" linkIndex="5" dir="l" state="o"/>
    <connection from="-E3" to="E4" fromLane="0" toLane="0" via=":J5_0_0" tl="J5" linkIndex="0" dir="r" state="o"/>
    <connection from="-E3" to="-E1" fromLane="0" toLane="0" via=":J5_1_0" tl="J5" linkIndex="1" dir="s" state="o"/>
    <connection from="-E3" to="E2" fromLane="0" toLane="0" via=":J5_2_0" tl="J5" linkIndex="2" dir="l" state="o"/>
    <connection from="-E4" to="-E1" fromLane="0" toLane="0" via=":J5_9_0" tl="J5" linkIndex="9" dir="r" state="O"/>
    <connection from="-E4" to="E2" fromLane="0" toLane="0" via=":J5_10_0" tl="J5" linkIndex="10" dir="s" state="O"/>
    <connection from="-E4" to="E3" fromLane="0" toLane="0" via=":J5_11_0" tl="J5" linkIndex="11" dir="l" state="o"/>
    <connection from="E1" to="E2" fromLane="0" toLane="0" via=":J5_6_0" tl="J5" linkIndex="6" dir="r" state="o"/>
    <connection from="E1" to="E3" fromLane="0" toLane="0" via=":J5_7_0" tl="J5" linkIndex="7" dir="s" state="o"/>
    <connection from="E1" to="E4" fromLane="0" toLane="0" via=":J5_8_0" tl="J5" linkIndex="8" dir="l" state="o"/>

    <connection from=":J5_0" to="E4" fromLane="0" toLane="0" dir="r" state="M"/>
    <connection from=":J5_1" to="-E1" fromLane="0" toLane="0" dir="s" state="M"/>
    <connection from=":J5_2" to="E2" fromLane="0" toLane="0" via=":J5_12_0" dir="l" state="m"/>
    <connection from=":J5_12" to="E2" fromLane="0" toLane="0" dir="l" state="M"/>
    <connection from=":J5_3" to="E3" fromLane="0" toLane="0" dir="r" state="M"/>
    <connection from=":J5_4" to="E4" fromLane="0" toLane="0" dir="s" state="M"/>
    <connection from=":J5_5" to="-E1" fromLane="0" toLane="0" via=":J5_13_0" dir="l" state="m"/>
    <connection from=":J5_13" to="-E1" fromLane="0" toLane="0" dir="l" state="M"/>
    <connection from=":J5_6" to="E2" fromLane="0" toLane="0" dir="r" state="M"/>
    <connection from=":J5_7" to="E3" fromLane="0" toLane="0" dir="s" state="M"/>
    <connection from=":J5_8" to="E4" fromLane="0" toLane="0" via=":J5_14_0" dir="l" state="m"/>
    <connection from=":J5_14" to="E4" fromLane="0" toLane="0" dir="l" state="M"/>
    <connection from=":J5_9" to="-E1" fromLane="0" toLane="0" dir="r" state="M"/>
    <connection from=":J5_10" to="E2" fromLane="0" toLane="0" dir="s" state="M"/>
    <connection from=":J5_11" to="E3" fromLane="0" toLane="0" via=":J5_15_0" dir="l" state="m"/>
    <connection from=":J5_15" to="E3" fromLane="0" toLane="0" dir="l" state="M"/>

</net>
