<?xml version="1.0" encoding="UTF-8"?>

<!-- generated on 2025-01-11 13:25:58 by Eclipse SUMO sumo Version v1_20_0+2047-af81d0c876d
-->

<sumoConfiguration xmlns:xsi="http://www.w3.org/2001/XMLSchema-instance" xsi:noNamespaceSchemaLocation="http://sumo.dlr.de/xsd/sumoConfiguration.xsd">

    <input>
        <net-file value="T.net.xml"/>
        <route-files value="T.rou.xml"/>
        <additional-files value="T.add.xml"/>
    </input>

</sumoConfiguration>
