<?xml version="1.0" encoding="UTF-8"?>

<!-- generated on 2025-01-10 02:41:39 by Eclipse SUMO netedit Version v1_20_0+2047-af81d0c876d
-->

<routes xmlns:xsi="http://www.w3.org/2001/XMLSchema-instance" xsi:noNamespaceSchemaLocation="http://sumo.dlr.de/xsd/routes_file.xsd">
    <!--Define Vehicle Types-->
    <vType id="car" vClass="passenger" color="1,0,0" />
    <vType id="truck" vClass="truck" color="0,1,0" />

    <!-- Define routes -->
    <route id="route_forward_a" edges="E0 E1"/>
    <route id="route_forward_b" edges="-E1 -E0"/>

    <!-- Define vehicle flows -->
    <flow id="low_flow_forward_a" route="route_forward_a" begin="0.00" end="1500.00" number="500"/> 
    <flow id="low_flow_forward_b" route="route_forward_b" begin="0.00" end="1500.00" number="500"/>
</routes>
